  Page 1                                    Thu May 20 11:11:49 2021

  ******************************************************************
  *                           E P A N E T                          *
  *                   Hydraulic and Water Quality                  *
  *                   Analysis for Pipe Networks                   *
  *                         Version 2.2                            *
  ******************************************************************
  
  Analysis begun Thu May 20 11:11:49 2021

  WARNING: Negative pressures at 0:08:50 hrs.
  WARNING: Node 14 disconnected at 0:08:50 hrs
  WARNING: Node 15 disconnected at 0:08:50 hrs
  WARNING: Node 16 disconnected at 0:08:50 hrs
  WARNING: Node 17 disconnected at 0:08:50 hrs
  WARNING: Node 18 disconnected at 0:08:50 hrs
  WARNING: Node 19 disconnected at 0:08:50 hrs
  WARNING: Node 20 disconnected at 0:08:50 hrs
  WARNING: Node 21 disconnected at 0:08:50 hrs
  WARNING: Node 22 disconnected at 0:08:50 hrs
  WARNING: Node 23 disconnected at 0:08:50 hrs
  WARNING: 6 additional nodes disconnected at 0:08:50 hrs
  WARNING: System disconnected because of Link 14
   
  WARNING: Negative pressures at 0:18:45 hrs.
  WARNING: Node 14 disconnected at 0:18:45 hrs
  WARNING: Node 15 disconnected at 0:18:45 hrs
  WARNING: Node 16 disconnected at 0:18:45 hrs
  WARNING: Node 17 disconnected at 0:18:45 hrs
  WARNING: Node 18 disconnected at 0:18:45 hrs
  WARNING: Node 19 disconnected at 0:18:45 hrs
  WARNING: Node 20 disconnected at 0:18:45 hrs
  WARNING: Node 21 disconnected at 0:18:45 hrs
  WARNING: Node 22 disconnected at 0:18:45 hrs
  WARNING: Node 23 disconnected at 0:18:45 hrs
  WARNING: 6 additional nodes disconnected at 0:18:45 hrs
  WARNING: System disconnected because of Link 14
   
  WARNING: Negative pressures at 0:28:40 hrs.
  WARNING: Node 14 disconnected at 0:28:40 hrs
  WARNING: Node 15 disconnected at 0:28:40 hrs
  WARNING: Node 16 disconnected at 0:28:40 hrs
  WARNING: Node 17 disconnected at 0:28:40 hrs
  WARNING: Node 18 disconnected at 0:28:40 hrs
  WARNING: Node 19 disconnected at 0:28:40 hrs
  WARNING: Node 20 disconnected at 0:28:40 hrs
  WARNING: Node 21 disconnected at 0:28:40 hrs
  WARNING: Node 22 disconnected at 0:28:40 hrs
  WARNING: Node 23 disconnected at 0:28:40 hrs
  WARNING: 6 additional nodes disconnected at 0:28:40 hrs
  WARNING: System disconnected because of Link 14
   
  WARNING: Negative pressures at 0:38:35 hrs.
  WARNING: Node 14 disconnected at 0:38:35 hrs
  WARNING: Node 15 disconnected at 0:38:35 hrs
  WARNING: Node 16 disconnected at 0:38:35 hrs
  WARNING: Node 17 disconnected at 0:38:35 hrs
  WARNING: Node 18 disconnected at 0:38:35 hrs
  WARNING: Node 19 disconnected at 0:38:35 hrs
  WARNING: Node 20 disconnected at 0:38:35 hrs
  WARNING: Node 21 disconnected at 0:38:35 hrs
  WARNING: Node 22 disconnected at 0:38:35 hrs
  WARNING: Node 23 disconnected at 0:38:35 hrs
  WARNING: 6 additional nodes disconnected at 0:38:35 hrs
  WARNING: System disconnected because of Link 14
   
  WARNING: Negative pressures at 0:48:30 hrs.
  WARNING: Node 14 disconnected at 0:48:30 hrs
  WARNING: Node 15 disconnected at 0:48:30 hrs
  WARNING: Node 16 disconnected at 0:48:30 hrs
  WARNING: Node 17 disconnected at 0:48:30 hrs
  WARNING: Node 18 disconnected at 0:48:30 hrs
  WARNING: Node 19 disconnected at 0:48:30 hrs
  WARNING: Node 20 disconnected at 0:48:30 hrs
  WARNING: Node 21 disconnected at 0:48:30 hrs
  WARNING: Node 22 disconnected at 0:48:30 hrs
  WARNING: Node 23 disconnected at 0:48:30 hrs
  WARNING: 6 additional nodes disconnected at 0:48:30 hrs
  WARNING: System disconnected because of Link 14
   
  WARNING: Negative pressures at 0:58:25 hrs.
  WARNING: Node 14 disconnected at 0:58:25 hrs
  WARNING: Node 15 disconnected at 0:58:25 hrs
  WARNING: Node 16 disconnected at 0:58:25 hrs
  WARNING: Node 17 disconnected at 0:58:25 hrs
  WARNING: Node 18 disconnected at 0:58:25 hrs
  WARNING: Node 19 disconnected at 0:58:25 hrs
  WARNING: Node 20 disconnected at 0:58:25 hrs
  WARNING: Node 21 disconnected at 0:58:25 hrs
  WARNING: Node 22 disconnected at 0:58:25 hrs
  WARNING: Node 23 disconnected at 0:58:25 hrs
  WARNING: 6 additional nodes disconnected at 0:58:25 hrs
  WARNING: System disconnected because of Link 14
   
  WARNING: Negative pressures at 1:10:00 hrs.
  WARNING: Node 14 disconnected at 1:10:00 hrs
  WARNING: Node 15 disconnected at 1:10:00 hrs
  WARNING: Node 16 disconnected at 1:10:00 hrs
  WARNING: Node 17 disconnected at 1:10:00 hrs
  WARNING: Node 18 disconnected at 1:10:00 hrs
  WARNING: Node 19 disconnected at 1:10:00 hrs
  WARNING: Node 20 disconnected at 1:10:00 hrs
  WARNING: Node 21 disconnected at 1:10:00 hrs
  WARNING: Node 22 disconnected at 1:10:00 hrs
  WARNING: Node 23 disconnected at 1:10:00 hrs
  WARNING: 6 additional nodes disconnected at 1:10:00 hrs
  WARNING: System disconnected because of Link 14
   
  WARNING: Negative pressures at 1:21:35 hrs.
  WARNING: Node 14 disconnected at 1:21:35 hrs
  WARNING: Node 15 disconnected at 1:21:35 hrs
  WARNING: Node 16 disconnected at 1:21:35 hrs
  WARNING: Node 17 disconnected at 1:21:35 hrs
  WARNING: Node 18 disconnected at 1:21:35 hrs
  WARNING: Node 19 disconnected at 1:21:35 hrs
  WARNING: Node 20 disconnected at 1:21:35 hrs
  WARNING: Node 21 disconnected at 1:21:35 hrs
  WARNING: Node 22 disconnected at 1:21:35 hrs
  WARNING: Node 23 disconnected at 1:21:35 hrs
  WARNING: 6 additional nodes disconnected at 1:21:35 hrs
  WARNING: System disconnected because of Link 14
   
  WARNING: Negative pressures at 1:33:10 hrs.
  WARNING: Node 14 disconnected at 1:33:10 hrs
  WARNING: Node 15 disconnected at 1:33:10 hrs
  WARNING: Node 16 disconnected at 1:33:10 hrs
  WARNING: Node 17 disconnected at 1:33:10 hrs
  WARNING: Node 18 disconnected at 1:33:10 hrs
  WARNING: Node 19 disconnected at 1:33:10 hrs
  WARNING: Node 20 disconnected at 1:33:10 hrs
  WARNING: Node 21 disconnected at 1:33:10 hrs
  WARNING: Node 22 disconnected at 1:33:10 hrs
  WARNING: Node 23 disconnected at 1:33:10 hrs
  WARNING: 6 additional nodes disconnected at 1:33:10 hrs
  WARNING: System disconnected because of Link 14
   
  WARNING: Negative pressures at 1:44:45 hrs.
  WARNING: Node 14 disconnected at 1:44:45 hrs
  WARNING: Node 15 disconnected at 1:44:45 hrs
  WARNING: Node 16 disconnected at 1:44:45 hrs
  WARNING: Node 17 disconnected at 1:44:45 hrs
  WARNING: Node 18 disconnected at 1:44:45 hrs
  WARNING: Node 19 disconnected at 1:44:45 hrs
  WARNING: Node 20 disconnected at 1:44:45 hrs
  WARNING: Node 21 disconnected at 1:44:45 hrs
  WARNING: Node 22 disconnected at 1:44:45 hrs
  WARNING: Node 23 disconnected at 1:44:45 hrs
  WARNING: 6 additional nodes disconnected at 1:44:45 hrs
  WARNING: System disconnected because of Link 14
   
  WARNING: Negative pressures at 1:56:20 hrs.
  WARNING: Node 14 disconnected at 1:56:20 hrs
  WARNING: Node 15 disconnected at 1:56:20 hrs
  WARNING: Node 16 disconnected at 1:56:20 hrs
  WARNING: Node 17 disconnected at 1:56:20 hrs
  WARNING: Node 18 disconnected at 1:56:20 hrs
  WARNING: Node 19 disconnected at 1:56:20 hrs
  WARNING: Node 20 disconnected at 1:56:20 hrs
  WARNING: Node 21 disconnected at 1:56:20 hrs
  WARNING: Node 22 disconnected at 1:56:20 hrs
  WARNING: Node 23 disconnected at 1:56:20 hrs
  WARNING: 6 additional nodes disconnected at 1:56:20 hrs
  WARNING: System disconnected because of Link 14
   
  WARNING: Negative pressures at 2:12:53 hrs.
  WARNING: Node 14 disconnected at 2:12:53 hrs
  WARNING: Node 15 disconnected at 2:12:53 hrs
  WARNING: Node 16 disconnected at 2:12:53 hrs
  WARNING: Node 17 disconnected at 2:12:53 hrs
  WARNING: Node 18 disconnected at 2:12:53 hrs
  WARNING: Node 19 disconnected at 2:12:53 hrs
  WARNING: Node 20 disconnected at 2:12:53 hrs
  WARNING: Node 21 disconnected at 2:12:53 hrs
  WARNING: Node 22 disconnected at 2:12:53 hrs
  WARNING: Node 23 disconnected at 2:12:53 hrs
  WARNING: 6 additional nodes disconnected at 2:12:53 hrs
  WARNING: System disconnected because of Link 14
   
  WARNING: Negative pressures at 2:26:58 hrs.
  WARNING: Node 14 disconnected at 2:26:58 hrs
  WARNING: Node 15 disconnected at 2:26:58 hrs
  WARNING: Node 16 disconnected at 2:26:58 hrs
  WARNING: Node 17 disconnected at 2:26:58 hrs
  WARNING: Node 18 disconnected at 2:26:58 hrs
  WARNING: Node 19 disconnected at 2:26:58 hrs
  WARNING: Node 20 disconnected at 2:26:58 hrs
  WARNING: Node 21 disconnected at 2:26:58 hrs
  WARNING: Node 22 disconnected at 2:26:58 hrs
  WARNING: Node 23 disconnected at 2:26:58 hrs
  WARNING: 6 additional nodes disconnected at 2:26:58 hrs
  WARNING: System disconnected because of Link 14
   
  WARNING: Negative pressures at 2:41:03 hrs.
  WARNING: Node 14 disconnected at 2:41:03 hrs
  WARNING: Node 15 disconnected at 2:41:03 hrs
  WARNING: Node 16 disconnected at 2:41:03 hrs
  WARNING: Node 17 disconnected at 2:41:03 hrs
  WARNING: Node 18 disconnected at 2:41:03 hrs
  WARNING: Node 19 disconnected at 2:41:03 hrs
  WARNING: Node 20 disconnected at 2:41:03 hrs
  WARNING: Node 21 disconnected at 2:41:03 hrs
  WARNING: Node 22 disconnected at 2:41:03 hrs
  WARNING: Node 23 disconnected at 2:41:03 hrs
  WARNING: 6 additional nodes disconnected at 2:41:03 hrs
  WARNING: System disconnected because of Link 14
   
  WARNING: Negative pressures at 2:55:08 hrs.
  WARNING: Node 14 disconnected at 2:55:08 hrs
  WARNING: Node 15 disconnected at 2:55:08 hrs
  WARNING: Node 16 disconnected at 2:55:08 hrs
  WARNING: Node 17 disconnected at 2:55:08 hrs
  WARNING: Node 18 disconnected at 2:55:08 hrs
  WARNING: Node 19 disconnected at 2:55:08 hrs
  WARNING: Node 20 disconnected at 2:55:08 hrs
  WARNING: Node 21 disconnected at 2:55:08 hrs
  WARNING: Node 22 disconnected at 2:55:08 hrs
  WARNING: Node 23 disconnected at 2:55:08 hrs
  WARNING: 6 additional nodes disconnected at 2:55:08 hrs
  WARNING: System disconnected because of Link 14
   
  WARNING: Negative pressures at 3:12:59 hrs.
  WARNING: Node 14 disconnected at 3:12:59 hrs
  WARNING: Node 15 disconnected at 3:12:59 hrs
  WARNING: Node 16 disconnected at 3:12:59 hrs
  WARNING: Node 17 disconnected at 3:12:59 hrs
  WARNING: Node 18 disconnected at 3:12:59 hrs
  WARNING: Node 19 disconnected at 3:12:59 hrs
  WARNING: Node 20 disconnected at 3:12:59 hrs
  WARNING: Node 21 disconnected at 3:12:59 hrs
  WARNING: Node 22 disconnected at 3:12:59 hrs
  WARNING: Node 23 disconnected at 3:12:59 hrs
  WARNING: 6 additional nodes disconnected at 3:12:59 hrs
  WARNING: System disconnected because of Link 14
   
  WARNING: Negative pressures at 3:27:04 hrs.
  WARNING: Node 14 disconnected at 3:27:04 hrs
  WARNING: Node 15 disconnected at 3:27:04 hrs
  WARNING: Node 16 disconnected at 3:27:04 hrs
  WARNING: Node 17 disconnected at 3:27:04 hrs
  WARNING: Node 18 disconnected at 3:27:04 hrs
  WARNING: Node 19 disconnected at 3:27:04 hrs
  WARNING: Node 20 disconnected at 3:27:04 hrs
  WARNING: Node 21 disconnected at 3:27:04 hrs
  WARNING: Node 22 disconnected at 3:27:04 hrs
  WARNING: Node 23 disconnected at 3:27:04 hrs
  WARNING: 6 additional nodes disconnected at 3:27:04 hrs
  WARNING: System disconnected because of Link 14
   
  WARNING: Negative pressures at 3:41:09 hrs.
  WARNING: Node 14 disconnected at 3:41:09 hrs
  WARNING: Node 15 disconnected at 3:41:09 hrs
  WARNING: Node 16 disconnected at 3:41:09 hrs
  WARNING: Node 17 disconnected at 3:41:09 hrs
  WARNING: Node 18 disconnected at 3:41:09 hrs
  WARNING: Node 19 disconnected at 3:41:09 hrs
  WARNING: Node 20 disconnected at 3:41:09 hrs
  WARNING: Node 21 disconnected at 3:41:09 hrs
  WARNING: Node 22 disconnected at 3:41:09 hrs
  WARNING: Node 23 disconnected at 3:41:09 hrs
  WARNING: 6 additional nodes disconnected at 3:41:09 hrs
  WARNING: System disconnected because of Link 14
   
  WARNING: Negative pressures at 3:55:14 hrs.
  WARNING: Node 14 disconnected at 3:55:14 hrs
  WARNING: Node 15 disconnected at 3:55:14 hrs
  WARNING: Node 16 disconnected at 3:55:14 hrs
  WARNING: Node 17 disconnected at 3:55:14 hrs
  WARNING: Node 18 disconnected at 3:55:14 hrs
  WARNING: Node 19 disconnected at 3:55:14 hrs
  WARNING: Node 20 disconnected at 3:55:14 hrs
  WARNING: Node 21 disconnected at 3:55:14 hrs
  WARNING: Node 22 disconnected at 3:55:14 hrs
  WARNING: Node 23 disconnected at 3:55:14 hrs
  WARNING: 6 additional nodes disconnected at 3:55:14 hrs
  WARNING: System disconnected because of Link 14
   
  WARNING: Negative pressures at 4:08:51 hrs.
  WARNING: Node 14 disconnected at 4:08:51 hrs
  WARNING: Node 15 disconnected at 4:08:51 hrs
  WARNING: Node 16 disconnected at 4:08:51 hrs
  WARNING: Node 17 disconnected at 4:08:51 hrs
  WARNING: Node 18 disconnected at 4:08:51 hrs
  WARNING: Node 19 disconnected at 4:08:51 hrs
  WARNING: Node 20 disconnected at 4:08:51 hrs
  WARNING: Node 21 disconnected at 4:08:51 hrs
  WARNING: Node 22 disconnected at 4:08:51 hrs
  WARNING: Node 23 disconnected at 4:08:51 hrs
  WARNING: 6 additional nodes disconnected at 4:08:51 hrs
  WARNING: System disconnected because of Link 14
   
  WARNING: Negative pressures at 4:18:46 hrs.
  WARNING: Node 14 disconnected at 4:18:46 hrs
  WARNING: Node 15 disconnected at 4:18:46 hrs
  WARNING: Node 16 disconnected at 4:18:46 hrs
  WARNING: Node 17 disconnected at 4:18:46 hrs
  WARNING: Node 18 disconnected at 4:18:46 hrs
  WARNING: Node 19 disconnected at 4:18:46 hrs
  WARNING: Node 20 disconnected at 4:18:46 hrs
  WARNING: Node 21 disconnected at 4:18:46 hrs
  WARNING: Node 22 disconnected at 4:18:46 hrs
  WARNING: Node 23 disconnected at 4:18:46 hrs
  WARNING: 6 additional nodes disconnected at 4:18:46 hrs
  WARNING: System disconnected because of Link 14
   
  WARNING: Negative pressures at 4:28:41 hrs.
  WARNING: Node 14 disconnected at 4:28:41 hrs
  WARNING: Node 15 disconnected at 4:28:41 hrs
  WARNING: Node 16 disconnected at 4:28:41 hrs
  WARNING: Node 17 disconnected at 4:28:41 hrs
  WARNING: Node 18 disconnected at 4:28:41 hrs
  WARNING: Node 19 disconnected at 4:28:41 hrs
  WARNING: Node 20 disconnected at 4:28:41 hrs
  WARNING: Node 21 disconnected at 4:28:41 hrs
  WARNING: Node 22 disconnected at 4:28:41 hrs
  WARNING: Node 23 disconnected at 4:28:41 hrs
  WARNING: 6 additional nodes disconnected at 4:28:41 hrs
  WARNING: System disconnected because of Link 14
   
  WARNING: Negative pressures at 4:38:36 hrs.
  WARNING: Node 14 disconnected at 4:38:36 hrs
  WARNING: Node 15 disconnected at 4:38:36 hrs
  WARNING: Node 16 disconnected at 4:38:36 hrs
  WARNING: Node 17 disconnected at 4:38:36 hrs
  WARNING: Node 18 disconnected at 4:38:36 hrs
  WARNING: Node 19 disconnected at 4:38:36 hrs
  WARNING: Node 20 disconnected at 4:38:36 hrs
  WARNING: Node 21 disconnected at 4:38:36 hrs
  WARNING: Node 22 disconnected at 4:38:36 hrs
  WARNING: Node 23 disconnected at 4:38:36 hrs
  WARNING: 6 additional nodes disconnected at 4:38:36 hrs
  WARNING: System disconnected because of Link 14
   
  WARNING: Negative pressures at 4:48:31 hrs.
  WARNING: Node 14 disconnected at 4:48:31 hrs
  WARNING: Node 15 disconnected at 4:48:31 hrs
  WARNING: Node 16 disconnected at 4:48:31 hrs
  WARNING: Node 17 disconnected at 4:48:31 hrs
  WARNING: Node 18 disconnected at 4:48:31 hrs
  WARNING: Node 19 disconnected at 4:48:31 hrs
  WARNING: Node 20 disconnected at 4:48:31 hrs
  WARNING: Node 21 disconnected at 4:48:31 hrs
  WARNING: Node 22 disconnected at 4:48:31 hrs
  WARNING: Node 23 disconnected at 4:48:31 hrs
  WARNING: 6 additional nodes disconnected at 4:48:31 hrs
  WARNING: System disconnected because of Link 14
   
  WARNING: Negative pressures at 4:58:26 hrs.
  WARNING: Node 14 disconnected at 4:58:26 hrs
  WARNING: Node 15 disconnected at 4:58:26 hrs
  WARNING: Node 16 disconnected at 4:58:26 hrs
  WARNING: Node 17 disconnected at 4:58:26 hrs
  WARNING: Node 18 disconnected at 4:58:26 hrs
  WARNING: Node 19 disconnected at 4:58:26 hrs
  WARNING: Node 20 disconnected at 4:58:26 hrs
  WARNING: Node 21 disconnected at 4:58:26 hrs
  WARNING: Node 22 disconnected at 4:58:26 hrs
  WARNING: Node 23 disconnected at 4:58:26 hrs
  WARNING: 6 additional nodes disconnected at 4:58:26 hrs
  WARNING: System disconnected because of Link 14
   
  WARNING: Negative pressures at 5:05:00 hrs.
  WARNING: Node 14 disconnected at 5:05:00 hrs
  WARNING: Node 15 disconnected at 5:05:00 hrs
  WARNING: Node 16 disconnected at 5:05:00 hrs
  WARNING: Node 17 disconnected at 5:05:00 hrs
  WARNING: Node 18 disconnected at 5:05:00 hrs
  WARNING: Node 19 disconnected at 5:05:00 hrs
  WARNING: Node 20 disconnected at 5:05:00 hrs
  WARNING: Node 21 disconnected at 5:05:00 hrs
  WARNING: Node 22 disconnected at 5:05:00 hrs
  WARNING: Node 23 disconnected at 5:05:00 hrs
  WARNING: 6 additional nodes disconnected at 5:05:00 hrs
  WARNING: System disconnected because of Link 14
   
  WARNING: Negative pressures at 5:11:35 hrs.
  WARNING: Node 14 disconnected at 5:11:35 hrs
  WARNING: Node 15 disconnected at 5:11:35 hrs
  WARNING: Node 16 disconnected at 5:11:35 hrs
  WARNING: Node 17 disconnected at 5:11:35 hrs
  WARNING: Node 18 disconnected at 5:11:35 hrs
  WARNING: Node 19 disconnected at 5:11:35 hrs
  WARNING: Node 20 disconnected at 5:11:35 hrs
  WARNING: Node 21 disconnected at 5:11:35 hrs
  WARNING: Node 22 disconnected at 5:11:35 hrs
  WARNING: Node 23 disconnected at 5:11:35 hrs
  WARNING: 6 additional nodes disconnected at 5:11:35 hrs
  WARNING: System disconnected because of Link 14
   
  WARNING: Negative pressures at 5:18:10 hrs.
  WARNING: Node 14 disconnected at 5:18:10 hrs
  WARNING: Node 15 disconnected at 5:18:10 hrs
  WARNING: Node 16 disconnected at 5:18:10 hrs
  WARNING: Node 17 disconnected at 5:18:10 hrs
  WARNING: Node 18 disconnected at 5:18:10 hrs
  WARNING: Node 19 disconnected at 5:18:10 hrs
  WARNING: Node 20 disconnected at 5:18:10 hrs
  WARNING: Node 21 disconnected at 5:18:10 hrs
  WARNING: Node 22 disconnected at 5:18:10 hrs
  WARNING: Node 23 disconnected at 5:18:10 hrs
  WARNING: 6 additional nodes disconnected at 5:18:10 hrs
  WARNING: System disconnected because of Link 14
   
  WARNING: Negative pressures at 5:24:45 hrs.
  WARNING: Node 14 disconnected at 5:24:45 hrs
  WARNING: Node 15 disconnected at 5:24:45 hrs
  WARNING: Node 16 disconnected at 5:24:45 hrs
  WARNING: Node 17 disconnected at 5:24:45 hrs
  WARNING: Node 18 disconnected at 5:24:45 hrs
  WARNING: Node 19 disconnected at 5:24:45 hrs
  WARNING: Node 20 disconnected at 5:24:45 hrs
  WARNING: Node 21 disconnected at 5:24:45 hrs
  WARNING: Node 22 disconnected at 5:24:45 hrs
  WARNING: Node 23 disconnected at 5:24:45 hrs
  WARNING: 6 additional nodes disconnected at 5:24:45 hrs
  WARNING: System disconnected because of Link 14
   
  WARNING: Negative pressures at 5:31:20 hrs.
  WARNING: Node 14 disconnected at 5:31:20 hrs
  WARNING: Node 15 disconnected at 5:31:20 hrs
  WARNING: Node 16 disconnected at 5:31:20 hrs
  WARNING: Node 17 disconnected at 5:31:20 hrs
  WARNING: Node 18 disconnected at 5:31:20 hrs
  WARNING: Node 19 disconnected at 5:31:20 hrs
  WARNING: Node 20 disconnected at 5:31:20 hrs
  WARNING: Node 21 disconnected at 5:31:20 hrs
  WARNING: Node 22 disconnected at 5:31:20 hrs
  WARNING: Node 23 disconnected at 5:31:20 hrs
  WARNING: 6 additional nodes disconnected at 5:31:20 hrs
  WARNING: System disconnected because of Link 14
   
  WARNING: Negative pressures at 5:37:55 hrs.
  WARNING: Node 14 disconnected at 5:37:55 hrs
  WARNING: Node 15 disconnected at 5:37:55 hrs
  WARNING: Node 16 disconnected at 5:37:55 hrs
  WARNING: Node 17 disconnected at 5:37:55 hrs
  WARNING: Node 18 disconnected at 5:37:55 hrs
  WARNING: Node 19 disconnected at 5:37:55 hrs
  WARNING: Node 20 disconnected at 5:37:55 hrs
  WARNING: Node 21 disconnected at 5:37:55 hrs
  WARNING: Node 22 disconnected at 5:37:55 hrs
  WARNING: Node 23 disconnected at 5:37:55 hrs
  WARNING: 6 additional nodes disconnected at 5:37:55 hrs
  WARNING: System disconnected because of Link 14
   
  WARNING: Negative pressures at 5:44:30 hrs.
  WARNING: Node 14 disconnected at 5:44:30 hrs
  WARNING: Node 15 disconnected at 5:44:30 hrs
  WARNING: Node 16 disconnected at 5:44:30 hrs
  WARNING: Node 17 disconnected at 5:44:30 hrs
  WARNING: Node 18 disconnected at 5:44:30 hrs
  WARNING: Node 19 disconnected at 5:44:30 hrs
  WARNING: Node 20 disconnected at 5:44:30 hrs
  WARNING: Node 21 disconnected at 5:44:30 hrs
  WARNING: Node 22 disconnected at 5:44:30 hrs
  WARNING: Node 23 disconnected at 5:44:30 hrs
  WARNING: 6 additional nodes disconnected at 5:44:30 hrs
  WARNING: System disconnected because of Link 14
   
  WARNING: Negative pressures at 5:51:05 hrs.
  WARNING: Node 14 disconnected at 5:51:05 hrs
  WARNING: Node 15 disconnected at 5:51:05 hrs
  WARNING: Node 16 disconnected at 5:51:05 hrs
  WARNING: Node 17 disconnected at 5:51:05 hrs
  WARNING: Node 18 disconnected at 5:51:05 hrs
  WARNING: Node 19 disconnected at 5:51:05 hrs
  WARNING: Node 20 disconnected at 5:51:05 hrs
  WARNING: Node 21 disconnected at 5:51:05 hrs
  WARNING: Node 22 disconnected at 5:51:05 hrs
  WARNING: Node 23 disconnected at 5:51:05 hrs
  WARNING: 6 additional nodes disconnected at 5:51:05 hrs
  WARNING: System disconnected because of Link 14
   
  WARNING: Negative pressures at 5:57:40 hrs.
  WARNING: Node 14 disconnected at 5:57:40 hrs
  WARNING: Node 15 disconnected at 5:57:40 hrs
  WARNING: Node 16 disconnected at 5:57:40 hrs
  WARNING: Node 17 disconnected at 5:57:40 hrs
  WARNING: Node 18 disconnected at 5:57:40 hrs
  WARNING: Node 19 disconnected at 5:57:40 hrs
  WARNING: Node 20 disconnected at 5:57:40 hrs
  WARNING: Node 21 disconnected at 5:57:40 hrs
  WARNING: Node 22 disconnected at 5:57:40 hrs
  WARNING: Node 23 disconnected at 5:57:40 hrs
  WARNING: 6 additional nodes disconnected at 5:57:40 hrs
  WARNING: System disconnected because of Link 14
   
  WARNING: Negative pressures at 6:04:34 hrs.
  WARNING: Node 14 disconnected at 6:04:34 hrs
  WARNING: Node 15 disconnected at 6:04:34 hrs
  WARNING: Node 16 disconnected at 6:04:34 hrs
  WARNING: Node 17 disconnected at 6:04:34 hrs
  WARNING: Node 18 disconnected at 6:04:34 hrs
  WARNING: Node 19 disconnected at 6:04:34 hrs
  WARNING: Node 20 disconnected at 6:04:34 hrs
  WARNING: Node 21 disconnected at 6:04:34 hrs
  WARNING: Node 22 disconnected at 6:04:34 hrs
  WARNING: Node 23 disconnected at 6:04:34 hrs
  WARNING: 6 additional nodes disconnected at 6:04:34 hrs
  WARNING: System disconnected because of Link 14
   
  WARNING: Negative pressures at 6:10:19 hrs.
  WARNING: Node 14 disconnected at 6:10:19 hrs
  WARNING: Node 15 disconnected at 6:10:19 hrs
  WARNING: Node 16 disconnected at 6:10:19 hrs
  WARNING: Node 17 disconnected at 6:10:19 hrs
  WARNING: Node 18 disconnected at 6:10:19 hrs
  WARNING: Node 19 disconnected at 6:10:19 hrs
  WARNING: Node 20 disconnected at 6:10:19 hrs
  WARNING: Node 21 disconnected at 6:10:19 hrs
  WARNING: Node 22 disconnected at 6:10:19 hrs
  WARNING: Node 23 disconnected at 6:10:19 hrs
  WARNING: 6 additional nodes disconnected at 6:10:19 hrs
  WARNING: System disconnected because of Link 14
   
  WARNING: Negative pressures at 6:16:04 hrs.
  WARNING: Node 14 disconnected at 6:16:04 hrs
  WARNING: Node 15 disconnected at 6:16:04 hrs
  WARNING: Node 16 disconnected at 6:16:04 hrs
  WARNING: Node 17 disconnected at 6:16:04 hrs
  WARNING: Node 18 disconnected at 6:16:04 hrs
  WARNING: Node 19 disconnected at 6:16:04 hrs
  WARNING: Node 20 disconnected at 6:16:04 hrs
  WARNING: Node 21 disconnected at 6:16:04 hrs
  WARNING: Node 22 disconnected at 6:16:04 hrs
  WARNING: Node 23 disconnected at 6:16:04 hrs
  WARNING: 6 additional nodes disconnected at 6:16:04 hrs
  WARNING: System disconnected because of Link 14
   
  WARNING: Negative pressures at 6:21:49 hrs.
  WARNING: Node 14 disconnected at 6:21:49 hrs
  WARNING: Node 15 disconnected at 6:21:49 hrs
  WARNING: Node 16 disconnected at 6:21:49 hrs
  WARNING: Node 17 disconnected at 6:21:49 hrs
  WARNING: Node 18 disconnected at 6:21:49 hrs
  WARNING: Node 19 disconnected at 6:21:49 hrs
  WARNING: Node 20 disconnected at 6:21:49 hrs
  WARNING: Node 21 disconnected at 6:21:49 hrs
  WARNING: Node 22 disconnected at 6:21:49 hrs
  WARNING: Node 23 disconnected at 6:21:49 hrs
  WARNING: 6 additional nodes disconnected at 6:21:49 hrs
  WARNING: System disconnected because of Link 14
   
  WARNING: Negative pressures at 6:27:34 hrs.
  WARNING: Node 14 disconnected at 6:27:34 hrs
  WARNING: Node 15 disconnected at 6:27:34 hrs
  WARNING: Node 16 disconnected at 6:27:34 hrs
  WARNING: Node 17 disconnected at 6:27:34 hrs
  WARNING: Node 18 disconnected at 6:27:34 hrs
  WARNING: Node 19 disconnected at 6:27:34 hrs
  WARNING: Node 20 disconnected at 6:27:34 hrs
  WARNING: Node 21 disconnected at 6:27:34 hrs
  WARNING: Node 22 disconnected at 6:27:34 hrs
  WARNING: Node 23 disconnected at 6:27:34 hrs
  WARNING: 6 additional nodes disconnected at 6:27:34 hrs
  WARNING: System disconnected because of Link 14
   
  WARNING: Negative pressures at 6:33:19 hrs.
  WARNING: Node 14 disconnected at 6:33:19 hrs
  WARNING: Node 15 disconnected at 6:33:19 hrs
  WARNING: Node 16 disconnected at 6:33:19 hrs
  WARNING: Node 17 disconnected at 6:33:19 hrs
  WARNING: Node 18 disconnected at 6:33:19 hrs
  WARNING: Node 19 disconnected at 6:33:19 hrs
  WARNING: Node 20 disconnected at 6:33:19 hrs
  WARNING: Node 21 disconnected at 6:33:19 hrs
  WARNING: Node 22 disconnected at 6:33:19 hrs
  WARNING: Node 23 disconnected at 6:33:19 hrs
  WARNING: 6 additional nodes disconnected at 6:33:19 hrs
  WARNING: System disconnected because of Link 14
   
  WARNING: Negative pressures at 6:39:04 hrs.
  WARNING: Node 14 disconnected at 6:39:04 hrs
  WARNING: Node 15 disconnected at 6:39:04 hrs
  WARNING: Node 16 disconnected at 6:39:04 hrs
  WARNING: Node 17 disconnected at 6:39:04 hrs
  WARNING: Node 18 disconnected at 6:39:04 hrs
  WARNING: Node 19 disconnected at 6:39:04 hrs
  WARNING: Node 20 disconnected at 6:39:04 hrs
  WARNING: Node 21 disconnected at 6:39:04 hrs
  WARNING: Node 22 disconnected at 6:39:04 hrs
  WARNING: Node 23 disconnected at 6:39:04 hrs
  WARNING: 6 additional nodes disconnected at 6:39:04 hrs
  WARNING: System disconnected because of Link 14
   
  WARNING: Negative pressures at 6:44:49 hrs.
  WARNING: Node 14 disconnected at 6:44:49 hrs
  WARNING: Node 15 disconnected at 6:44:49 hrs
  WARNING: Node 16 disconnected at 6:44:49 hrs
  WARNING: Node 17 disconnected at 6:44:49 hrs
  WARNING: Node 18 disconnected at 6:44:49 hrs
  WARNING: Node 19 disconnected at 6:44:49 hrs
  WARNING: Node 20 disconnected at 6:44:49 hrs
  WARNING: Node 21 disconnected at 6:44:49 hrs
  WARNING: Node 22 disconnected at 6:44:49 hrs
  WARNING: Node 23 disconnected at 6:44:49 hrs
  WARNING: 6 additional nodes disconnected at 6:44:49 hrs
  WARNING: System disconnected because of Link 14
   
  WARNING: Negative pressures at 6:50:34 hrs.
  WARNING: Node 14 disconnected at 6:50:34 hrs
  WARNING: Node 15 disconnected at 6:50:34 hrs
  WARNING: Node 16 disconnected at 6:50:34 hrs
  WARNING: Node 17 disconnected at 6:50:34 hrs
  WARNING: Node 18 disconnected at 6:50:34 hrs
  WARNING: Node 19 disconnected at 6:50:34 hrs
  WARNING: Node 20 disconnected at 6:50:34 hrs
  WARNING: Node 21 disconnected at 6:50:34 hrs
  WARNING: Node 22 disconnected at 6:50:34 hrs
  WARNING: Node 23 disconnected at 6:50:34 hrs
  WARNING: 6 additional nodes disconnected at 6:50:34 hrs
  WARNING: System disconnected because of Link 14
   
  WARNING: Negative pressures at 6:56:19 hrs.
  WARNING: Node 14 disconnected at 6:56:19 hrs
  WARNING: Node 15 disconnected at 6:56:19 hrs
  WARNING: Node 16 disconnected at 6:56:19 hrs
  WARNING: Node 17 disconnected at 6:56:19 hrs
  WARNING: Node 18 disconnected at 6:56:19 hrs
  WARNING: Node 19 disconnected at 6:56:19 hrs
  WARNING: Node 20 disconnected at 6:56:19 hrs
  WARNING: Node 21 disconnected at 6:56:19 hrs
  WARNING: Node 22 disconnected at 6:56:19 hrs
  WARNING: Node 23 disconnected at 6:56:19 hrs
  WARNING: 6 additional nodes disconnected at 6:56:19 hrs
  WARNING: System disconnected because of Link 14
   
  WARNING: Negative pressures at 7:05:14 hrs.
  WARNING: Node 14 disconnected at 7:05:14 hrs
  WARNING: Node 15 disconnected at 7:05:14 hrs
  WARNING: Node 16 disconnected at 7:05:14 hrs
  WARNING: Node 17 disconnected at 7:05:14 hrs
  WARNING: Node 18 disconnected at 7:05:14 hrs
  WARNING: Node 19 disconnected at 7:05:14 hrs
  WARNING: Node 20 disconnected at 7:05:14 hrs
  WARNING: Node 21 disconnected at 7:05:14 hrs
  WARNING: Node 22 disconnected at 7:05:14 hrs
  WARNING: Node 23 disconnected at 7:05:14 hrs
  WARNING: 6 additional nodes disconnected at 7:05:14 hrs
  WARNING: System disconnected because of Link 14
   
  WARNING: Negative pressures at 7:10:40 hrs.
  WARNING: Node 14 disconnected at 7:10:40 hrs
  WARNING: Node 15 disconnected at 7:10:40 hrs
  WARNING: Node 16 disconnected at 7:10:40 hrs
  WARNING: Node 17 disconnected at 7:10:40 hrs
  WARNING: Node 18 disconnected at 7:10:40 hrs
  WARNING: Node 19 disconnected at 7:10:40 hrs
  WARNING: Node 20 disconnected at 7:10:40 hrs
  WARNING: Node 21 disconnected at 7:10:40 hrs
  WARNING: Node 22 disconnected at 7:10:40 hrs
  WARNING: Node 23 disconnected at 7:10:40 hrs
  WARNING: 6 additional nodes disconnected at 7:10:40 hrs
  WARNING: System disconnected because of Link 14
   
  WARNING: Negative pressures at 7:16:06 hrs.
  WARNING: Node 14 disconnected at 7:16:06 hrs
  WARNING: Node 15 disconnected at 7:16:06 hrs
  WARNING: Node 16 disconnected at 7:16:06 hrs
  WARNING: Node 17 disconnected at 7:16:06 hrs
  WARNING: Node 18 disconnected at 7:16:06 hrs
  WARNING: Node 19 disconnected at 7:16:06 hrs
  WARNING: Node 20 disconnected at 7:16:06 hrs
  WARNING: Node 21 disconnected at 7:16:06 hrs
  WARNING: Node 22 disconnected at 7:16:06 hrs
  WARNING: Node 23 disconnected at 7:16:06 hrs
  WARNING: 6 additional nodes disconnected at 7:16:06 hrs
  WARNING: System disconnected because of Link 14
   
  WARNING: Negative pressures at 7:21:32 hrs.
  WARNING: Node 14 disconnected at 7:21:32 hrs
  WARNING: Node 15 disconnected at 7:21:32 hrs
  WARNING: Node 16 disconnected at 7:21:32 hrs
  WARNING: Node 17 disconnected at 7:21:32 hrs
  WARNING: Node 18 disconnected at 7:21:32 hrs
  WARNING: Node 19 disconnected at 7:21:32 hrs
  WARNING: Node 20 disconnected at 7:21:32 hrs
  WARNING: Node 21 disconnected at 7:21:32 hrs
  WARNING: Node 22 disconnected at 7:21:32 hrs
  WARNING: Node 23 disconnected at 7:21:32 hrs
  WARNING: 6 additional nodes disconnected at 7:21:32 hrs
  WARNING: System disconnected because of Link 14
   
  WARNING: Negative pressures at 7:26:58 hrs.
  WARNING: Node 14 disconnected at 7:26:58 hrs
  WARNING: Node 15 disconnected at 7:26:58 hrs
  WARNING: Node 16 disconnected at 7:26:58 hrs
  WARNING: Node 17 disconnected at 7:26:58 hrs
  WARNING: Node 18 disconnected at 7:26:58 hrs
  WARNING: Node 19 disconnected at 7:26:58 hrs
  WARNING: Node 20 disconnected at 7:26:58 hrs
  WARNING: Node 21 disconnected at 7:26:58 hrs
  WARNING: Node 22 disconnected at 7:26:58 hrs
  WARNING: Node 23 disconnected at 7:26:58 hrs
  WARNING: 6 additional nodes disconnected at 7:26:58 hrs
  WARNING: System disconnected because of Link 14
   
  WARNING: Negative pressures at 7:32:24 hrs.
  WARNING: Node 14 disconnected at 7:32:24 hrs
  WARNING: Node 15 disconnected at 7:32:24 hrs
  WARNING: Node 16 disconnected at 7:32:24 hrs
  WARNING: Node 17 disconnected at 7:32:24 hrs
  WARNING: Node 18 disconnected at 7:32:24 hrs
  WARNING: Node 19 disconnected at 7:32:24 hrs
  WARNING: Node 20 disconnected at 7:32:24 hrs
  WARNING: Node 21 disconnected at 7:32:24 hrs
  WARNING: Node 22 disconnected at 7:32:24 hrs
  WARNING: Node 23 disconnected at 7:32:24 hrs
  WARNING: 6 additional nodes disconnected at 7:32:24 hrs
  WARNING: System disconnected because of Link 14
   
  WARNING: Negative pressures at 7:37:50 hrs.
  WARNING: Node 14 disconnected at 7:37:50 hrs
  WARNING: Node 15 disconnected at 7:37:50 hrs
  WARNING: Node 16 disconnected at 7:37:50 hrs
  WARNING: Node 17 disconnected at 7:37:50 hrs
  WARNING: Node 18 disconnected at 7:37:50 hrs
  WARNING: Node 19 disconnected at 7:37:50 hrs
  WARNING: Node 20 disconnected at 7:37:50 hrs
  WARNING: Node 21 disconnected at 7:37:50 hrs
  WARNING: Node 22 disconnected at 7:37:50 hrs
  WARNING: Node 23 disconnected at 7:37:50 hrs
  WARNING: 6 additional nodes disconnected at 7:37:50 hrs
  WARNING: System disconnected because of Link 14
   
  WARNING: Negative pressures at 7:43:16 hrs.
  WARNING: Node 14 disconnected at 7:43:16 hrs
  WARNING: Node 15 disconnected at 7:43:16 hrs
  WARNING: Node 16 disconnected at 7:43:16 hrs
  WARNING: Node 17 disconnected at 7:43:16 hrs
  WARNING: Node 18 disconnected at 7:43:16 hrs
  WARNING: Node 19 disconnected at 7:43:16 hrs
  WARNING: Node 20 disconnected at 7:43:16 hrs
  WARNING: Node 21 disconnected at 7:43:16 hrs
  WARNING: Node 22 disconnected at 7:43:16 hrs
  WARNING: Node 23 disconnected at 7:43:16 hrs
  WARNING: 6 additional nodes disconnected at 7:43:16 hrs
  WARNING: System disconnected because of Link 14
   
  WARNING: Negative pressures at 7:48:42 hrs.
  WARNING: Node 14 disconnected at 7:48:42 hrs
  WARNING: Node 15 disconnected at 7:48:42 hrs
  WARNING: Node 16 disconnected at 7:48:42 hrs
  WARNING: Node 17 disconnected at 7:48:42 hrs
  WARNING: Node 18 disconnected at 7:48:42 hrs
  WARNING: Node 19 disconnected at 7:48:42 hrs
  WARNING: Node 20 disconnected at 7:48:42 hrs
  WARNING: Node 21 disconnected at 7:48:42 hrs
  WARNING: Node 22 disconnected at 7:48:42 hrs
  WARNING: Node 23 disconnected at 7:48:42 hrs
  WARNING: 6 additional nodes disconnected at 7:48:42 hrs
  WARNING: System disconnected because of Link 14
   
  WARNING: Negative pressures at 7:54:08 hrs.
  WARNING: Node 14 disconnected at 7:54:08 hrs
  WARNING: Node 15 disconnected at 7:54:08 hrs
  WARNING: Node 16 disconnected at 7:54:08 hrs
  WARNING: Node 17 disconnected at 7:54:08 hrs
  WARNING: Node 18 disconnected at 7:54:08 hrs
  WARNING: Node 19 disconnected at 7:54:08 hrs
  WARNING: Node 20 disconnected at 7:54:08 hrs
  WARNING: Node 21 disconnected at 7:54:08 hrs
  WARNING: Node 22 disconnected at 7:54:08 hrs
  WARNING: Node 23 disconnected at 7:54:08 hrs
  WARNING: 6 additional nodes disconnected at 7:54:08 hrs
  WARNING: System disconnected because of Link 14
   
  WARNING: Negative pressures at 7:59:34 hrs.
  WARNING: Node 14 disconnected at 7:59:34 hrs
  WARNING: Node 15 disconnected at 7:59:34 hrs
  WARNING: Node 16 disconnected at 7:59:34 hrs
  WARNING: Node 17 disconnected at 7:59:34 hrs
  WARNING: Node 18 disconnected at 7:59:34 hrs
  WARNING: Node 19 disconnected at 7:59:34 hrs
  WARNING: Node 20 disconnected at 7:59:34 hrs
  WARNING: Node 21 disconnected at 7:59:34 hrs
  WARNING: Node 22 disconnected at 7:59:34 hrs
  WARNING: Node 23 disconnected at 7:59:34 hrs
  WARNING: 6 additional nodes disconnected at 7:59:34 hrs
  WARNING: System disconnected because of Link 14
   
  WARNING: Negative pressures at 8:06:20 hrs.
  WARNING: Node 14 disconnected at 8:06:20 hrs
  WARNING: Node 15 disconnected at 8:06:20 hrs
  WARNING: Node 16 disconnected at 8:06:20 hrs
  WARNING: Node 17 disconnected at 8:06:20 hrs
  WARNING: Node 18 disconnected at 8:06:20 hrs
  WARNING: Node 19 disconnected at 8:06:20 hrs
  WARNING: Node 20 disconnected at 8:06:20 hrs
  WARNING: Node 21 disconnected at 8:06:20 hrs
  WARNING: Node 22 disconnected at 8:06:20 hrs
  WARNING: Node 23 disconnected at 8:06:20 hrs
  WARNING: 6 additional nodes disconnected at 8:06:20 hrs
  WARNING: System disconnected because of Link 14
   
  WARNING: Negative pressures at 8:12:28 hrs.
  WARNING: Node 14 disconnected at 8:12:28 hrs
  WARNING: Node 15 disconnected at 8:12:28 hrs
  WARNING: Node 16 disconnected at 8:12:28 hrs
  WARNING: Node 17 disconnected at 8:12:28 hrs
  WARNING: Node 18 disconnected at 8:12:28 hrs
  WARNING: Node 19 disconnected at 8:12:28 hrs
  WARNING: Node 20 disconnected at 8:12:28 hrs
  WARNING: Node 21 disconnected at 8:12:28 hrs
  WARNING: Node 22 disconnected at 8:12:28 hrs
  WARNING: Node 23 disconnected at 8:12:28 hrs
  WARNING: 6 additional nodes disconnected at 8:12:28 hrs
  WARNING: System disconnected because of Link 14
   
  WARNING: Negative pressures at 8:18:36 hrs.
  WARNING: Node 14 disconnected at 8:18:36 hrs
  WARNING: Node 15 disconnected at 8:18:36 hrs
  WARNING: Node 16 disconnected at 8:18:36 hrs
  WARNING: Node 17 disconnected at 8:18:36 hrs
  WARNING: Node 18 disconnected at 8:18:36 hrs
  WARNING: Node 19 disconnected at 8:18:36 hrs
  WARNING: Node 20 disconnected at 8:18:36 hrs
  WARNING: Node 21 disconnected at 8:18:36 hrs
  WARNING: Node 22 disconnected at 8:18:36 hrs
  WARNING: Node 23 disconnected at 8:18:36 hrs
  WARNING: 6 additional nodes disconnected at 8:18:36 hrs
  WARNING: System disconnected because of Link 14
   
  WARNING: Negative pressures at 8:24:44 hrs.
  WARNING: Node 14 disconnected at 8:24:44 hrs
  WARNING: Node 15 disconnected at 8:24:44 hrs
  WARNING: Node 16 disconnected at 8:24:44 hrs
  WARNING: Node 17 disconnected at 8:24:44 hrs
  WARNING: Node 18 disconnected at 8:24:44 hrs
  WARNING: Node 19 disconnected at 8:24:44 hrs
  WARNING: Node 20 disconnected at 8:24:44 hrs
  WARNING: Node 21 disconnected at 8:24:44 hrs
  WARNING: Node 22 disconnected at 8:24:44 hrs
  WARNING: Node 23 disconnected at 8:24:44 hrs
  WARNING: 6 additional nodes disconnected at 8:24:44 hrs
  WARNING: System disconnected because of Link 14
   
  WARNING: Negative pressures at 8:30:52 hrs.
  WARNING: Node 14 disconnected at 8:30:52 hrs
  WARNING: Node 15 disconnected at 8:30:52 hrs
  WARNING: Node 16 disconnected at 8:30:52 hrs
  WARNING: Node 17 disconnected at 8:30:52 hrs
  WARNING: Node 18 disconnected at 8:30:52 hrs
  WARNING: Node 19 disconnected at 8:30:52 hrs
  WARNING: Node 20 disconnected at 8:30:52 hrs
  WARNING: Node 21 disconnected at 8:30:52 hrs
  WARNING: Node 22 disconnected at 8:30:52 hrs
  WARNING: Node 23 disconnected at 8:30:52 hrs
  WARNING: 6 additional nodes disconnected at 8:30:52 hrs
  WARNING: System disconnected because of Link 14
   
  WARNING: Negative pressures at 8:37:00 hrs.
  WARNING: Node 14 disconnected at 8:37:00 hrs
  WARNING: Node 15 disconnected at 8:37:00 hrs
  WARNING: Node 16 disconnected at 8:37:00 hrs
  WARNING: Node 17 disconnected at 8:37:00 hrs
  WARNING: Node 18 disconnected at 8:37:00 hrs
  WARNING: Node 19 disconnected at 8:37:00 hrs
  WARNING: Node 20 disconnected at 8:37:00 hrs
  WARNING: Node 21 disconnected at 8:37:00 hrs
  WARNING: Node 22 disconnected at 8:37:00 hrs
  WARNING: Node 23 disconnected at 8:37:00 hrs
  WARNING: 6 additional nodes disconnected at 8:37:00 hrs
  WARNING: System disconnected because of Link 14
   
  WARNING: Negative pressures at 8:43:08 hrs.
  WARNING: Node 14 disconnected at 8:43:08 hrs
  WARNING: Node 15 disconnected at 8:43:08 hrs
  WARNING: Node 16 disconnected at 8:43:08 hrs
  WARNING: Node 17 disconnected at 8:43:08 hrs
  WARNING: Node 18 disconnected at 8:43:08 hrs
  WARNING: Node 19 disconnected at 8:43:08 hrs
  WARNING: Node 20 disconnected at 8:43:08 hrs
  WARNING: Node 21 disconnected at 8:43:08 hrs
  WARNING: Node 22 disconnected at 8:43:08 hrs
  WARNING: Node 23 disconnected at 8:43:08 hrs
  WARNING: 6 additional nodes disconnected at 8:43:08 hrs
  WARNING: System disconnected because of Link 14
   
  WARNING: Negative pressures at 8:49:16 hrs.
  WARNING: Node 14 disconnected at 8:49:16 hrs
  WARNING: Node 15 disconnected at 8:49:16 hrs
  WARNING: Node 16 disconnected at 8:49:16 hrs
  WARNING: Node 17 disconnected at 8:49:16 hrs
  WARNING: Node 18 disconnected at 8:49:16 hrs
  WARNING: Node 19 disconnected at 8:49:16 hrs
  WARNING: Node 20 disconnected at 8:49:16 hrs
  WARNING: Node 21 disconnected at 8:49:16 hrs
  WARNING: Node 22 disconnected at 8:49:16 hrs
  WARNING: Node 23 disconnected at 8:49:16 hrs
  WARNING: 6 additional nodes disconnected at 8:49:16 hrs
  WARNING: System disconnected because of Link 14
   
  WARNING: Negative pressures at 8:55:24 hrs.
  WARNING: Node 14 disconnected at 8:55:24 hrs
  WARNING: Node 15 disconnected at 8:55:24 hrs
  WARNING: Node 16 disconnected at 8:55:24 hrs
  WARNING: Node 17 disconnected at 8:55:24 hrs
  WARNING: Node 18 disconnected at 8:55:24 hrs
  WARNING: Node 19 disconnected at 8:55:24 hrs
  WARNING: Node 20 disconnected at 8:55:24 hrs
  WARNING: Node 21 disconnected at 8:55:24 hrs
  WARNING: Node 22 disconnected at 8:55:24 hrs
  WARNING: Node 23 disconnected at 8:55:24 hrs
  WARNING: 6 additional nodes disconnected at 8:55:24 hrs
  WARNING: System disconnected because of Link 14
   
  WARNING: Negative pressures at 9:06:11 hrs.
  WARNING: Node 14 disconnected at 9:06:11 hrs
  WARNING: Node 15 disconnected at 9:06:11 hrs
  WARNING: Node 16 disconnected at 9:06:11 hrs
  WARNING: Node 17 disconnected at 9:06:11 hrs
  WARNING: Node 18 disconnected at 9:06:11 hrs
  WARNING: Node 19 disconnected at 9:06:11 hrs
  WARNING: Node 20 disconnected at 9:06:11 hrs
  WARNING: Node 21 disconnected at 9:06:11 hrs
  WARNING: Node 22 disconnected at 9:06:11 hrs
  WARNING: Node 23 disconnected at 9:06:11 hrs
  WARNING: 6 additional nodes disconnected at 9:06:11 hrs
  WARNING: System disconnected because of Link 14
   
  WARNING: Negative pressures at 9:12:19 hrs.
  WARNING: Node 14 disconnected at 9:12:19 hrs
  WARNING: Node 15 disconnected at 9:12:19 hrs
  WARNING: Node 16 disconnected at 9:12:19 hrs
  WARNING: Node 17 disconnected at 9:12:19 hrs
  WARNING: Node 18 disconnected at 9:12:19 hrs
  WARNING: Node 19 disconnected at 9:12:19 hrs
  WARNING: Node 20 disconnected at 9:12:19 hrs
  WARNING: Node 21 disconnected at 9:12:19 hrs
  WARNING: Node 22 disconnected at 9:12:19 hrs
  WARNING: Node 23 disconnected at 9:12:19 hrs
  WARNING: 6 additional nodes disconnected at 9:12:19 hrs
  WARNING: System disconnected because of Link 14
   
  WARNING: Negative pressures at 9:18:27 hrs.
  WARNING: Node 14 disconnected at 9:18:27 hrs
  WARNING: Node 15 disconnected at 9:18:27 hrs
  WARNING: Node 16 disconnected at 9:18:27 hrs
  WARNING: Node 17 disconnected at 9:18:27 hrs
  WARNING: Node 18 disconnected at 9:18:27 hrs
  WARNING: Node 19 disconnected at 9:18:27 hrs
  WARNING: Node 20 disconnected at 9:18:27 hrs
  WARNING: Node 21 disconnected at 9:18:27 hrs
  WARNING: Node 22 disconnected at 9:18:27 hrs
  WARNING: Node 23 disconnected at 9:18:27 hrs
  WARNING: 6 additional nodes disconnected at 9:18:27 hrs
  WARNING: System disconnected because of Link 14
   
  WARNING: Negative pressures at 9:24:35 hrs.
  WARNING: Node 14 disconnected at 9:24:35 hrs
  WARNING: Node 15 disconnected at 9:24:35 hrs
  WARNING: Node 16 disconnected at 9:24:35 hrs
  WARNING: Node 17 disconnected at 9:24:35 hrs
  WARNING: Node 18 disconnected at 9:24:35 hrs
  WARNING: Node 19 disconnected at 9:24:35 hrs
  WARNING: Node 20 disconnected at 9:24:35 hrs
  WARNING: Node 21 disconnected at 9:24:35 hrs
  WARNING: Node 22 disconnected at 9:24:35 hrs
  WARNING: Node 23 disconnected at 9:24:35 hrs
  WARNING: 6 additional nodes disconnected at 9:24:35 hrs
  WARNING: System disconnected because of Link 14
   
  WARNING: Negative pressures at 9:30:43 hrs.
  WARNING: Node 14 disconnected at 9:30:43 hrs
  WARNING: Node 15 disconnected at 9:30:43 hrs
  WARNING: Node 16 disconnected at 9:30:43 hrs
  WARNING: Node 17 disconnected at 9:30:43 hrs
  WARNING: Node 18 disconnected at 9:30:43 hrs
  WARNING: Node 19 disconnected at 9:30:43 hrs
  WARNING: Node 20 disconnected at 9:30:43 hrs
  WARNING: Node 21 disconnected at 9:30:43 hrs
  WARNING: Node 22 disconnected at 9:30:43 hrs
  WARNING: Node 23 disconnected at 9:30:43 hrs
  WARNING: 6 additional nodes disconnected at 9:30:43 hrs
  WARNING: System disconnected because of Link 14
   
  WARNING: Negative pressures at 9:36:51 hrs.
  WARNING: Node 14 disconnected at 9:36:51 hrs
  WARNING: Node 15 disconnected at 9:36:51 hrs
  WARNING: Node 16 disconnected at 9:36:51 hrs
  WARNING: Node 17 disconnected at 9:36:51 hrs
  WARNING: Node 18 disconnected at 9:36:51 hrs
  WARNING: Node 19 disconnected at 9:36:51 hrs
  WARNING: Node 20 disconnected at 9:36:51 hrs
  WARNING: Node 21 disconnected at 9:36:51 hrs
  WARNING: Node 22 disconnected at 9:36:51 hrs
  WARNING: Node 23 disconnected at 9:36:51 hrs
  WARNING: 6 additional nodes disconnected at 9:36:51 hrs
  WARNING: System disconnected because of Link 14
   
  WARNING: Negative pressures at 9:42:59 hrs.
  WARNING: Node 14 disconnected at 9:42:59 hrs
  WARNING: Node 15 disconnected at 9:42:59 hrs
  WARNING: Node 16 disconnected at 9:42:59 hrs
  WARNING: Node 17 disconnected at 9:42:59 hrs
  WARNING: Node 18 disconnected at 9:42:59 hrs
  WARNING: Node 19 disconnected at 9:42:59 hrs
  WARNING: Node 20 disconnected at 9:42:59 hrs
  WARNING: Node 21 disconnected at 9:42:59 hrs
  WARNING: Node 22 disconnected at 9:42:59 hrs
  WARNING: Node 23 disconnected at 9:42:59 hrs
  WARNING: 6 additional nodes disconnected at 9:42:59 hrs
  WARNING: System disconnected because of Link 14
   
  WARNING: Negative pressures at 9:49:07 hrs.
  WARNING: Node 14 disconnected at 9:49:07 hrs
  WARNING: Node 15 disconnected at 9:49:07 hrs
  WARNING: Node 16 disconnected at 9:49:07 hrs
  WARNING: Node 17 disconnected at 9:49:07 hrs
  WARNING: Node 18 disconnected at 9:49:07 hrs
  WARNING: Node 19 disconnected at 9:49:07 hrs
  WARNING: Node 20 disconnected at 9:49:07 hrs
  WARNING: Node 21 disconnected at 9:49:07 hrs
  WARNING: Node 22 disconnected at 9:49:07 hrs
  WARNING: Node 23 disconnected at 9:49:07 hrs
  WARNING: 6 additional nodes disconnected at 9:49:07 hrs
  WARNING: System disconnected because of Link 14
   
  WARNING: Negative pressures at 9:55:15 hrs.
  WARNING: Node 14 disconnected at 9:55:15 hrs
  WARNING: Node 15 disconnected at 9:55:15 hrs
  WARNING: Node 16 disconnected at 9:55:15 hrs
  WARNING: Node 17 disconnected at 9:55:15 hrs
  WARNING: Node 18 disconnected at 9:55:15 hrs
  WARNING: Node 19 disconnected at 9:55:15 hrs
  WARNING: Node 20 disconnected at 9:55:15 hrs
  WARNING: Node 21 disconnected at 9:55:15 hrs
  WARNING: Node 22 disconnected at 9:55:15 hrs
  WARNING: Node 23 disconnected at 9:55:15 hrs
  WARNING: 6 additional nodes disconnected at 9:55:15 hrs
  WARNING: System disconnected because of Link 14
   
  WARNING: Negative pressures at 10:05:58 hrs.
  WARNING: Node 14 disconnected at 10:05:58 hrs
  WARNING: Node 15 disconnected at 10:05:58 hrs
  WARNING: Node 16 disconnected at 10:05:58 hrs
  WARNING: Node 17 disconnected at 10:05:58 hrs
  WARNING: Node 18 disconnected at 10:05:58 hrs
  WARNING: Node 19 disconnected at 10:05:58 hrs
  WARNING: Node 20 disconnected at 10:05:58 hrs
  WARNING: Node 21 disconnected at 10:05:58 hrs
  WARNING: Node 22 disconnected at 10:05:58 hrs
  WARNING: Node 23 disconnected at 10:05:58 hrs
  WARNING: 6 additional nodes disconnected at 10:05:58 hrs
  WARNING: System disconnected because of Link 14
   
  WARNING: Negative pressures at 10:11:43 hrs.
  WARNING: Node 14 disconnected at 10:11:43 hrs
  WARNING: Node 15 disconnected at 10:11:43 hrs
  WARNING: Node 16 disconnected at 10:11:43 hrs
  WARNING: Node 17 disconnected at 10:11:43 hrs
  WARNING: Node 18 disconnected at 10:11:43 hrs
  WARNING: Node 19 disconnected at 10:11:43 hrs
  WARNING: Node 20 disconnected at 10:11:43 hrs
  WARNING: Node 21 disconnected at 10:11:43 hrs
  WARNING: Node 22 disconnected at 10:11:43 hrs
  WARNING: Node 23 disconnected at 10:11:43 hrs
  WARNING: 6 additional nodes disconnected at 10:11:43 hrs
  WARNING: System disconnected because of Link 14
   
  WARNING: Negative pressures at 10:17:28 hrs.
  WARNING: Node 14 disconnected at 10:17:28 hrs
  WARNING: Node 15 disconnected at 10:17:28 hrs
  WARNING: Node 16 disconnected at 10:17:28 hrs
  WARNING: Node 17 disconnected at 10:17:28 hrs
  WARNING: Node 18 disconnected at 10:17:28 hrs
  WARNING: Node 19 disconnected at 10:17:28 hrs
  WARNING: Node 20 disconnected at 10:17:28 hrs
  WARNING: Node 21 disconnected at 10:17:28 hrs
  WARNING: Node 22 disconnected at 10:17:28 hrs
  WARNING: Node 23 disconnected at 10:17:28 hrs
  WARNING: 6 additional nodes disconnected at 10:17:28 hrs
  WARNING: System disconnected because of Link 14
   
  WARNING: Negative pressures at 10:23:13 hrs.
  WARNING: Node 14 disconnected at 10:23:13 hrs
  WARNING: Node 15 disconnected at 10:23:13 hrs
  WARNING: Node 16 disconnected at 10:23:13 hrs
  WARNING: Node 17 disconnected at 10:23:13 hrs
  WARNING: Node 18 disconnected at 10:23:13 hrs
  WARNING: Node 19 disconnected at 10:23:13 hrs
  WARNING: Node 20 disconnected at 10:23:13 hrs
  WARNING: Node 21 disconnected at 10:23:13 hrs
  WARNING: Node 22 disconnected at 10:23:13 hrs
  WARNING: Node 23 disconnected at 10:23:13 hrs
  WARNING: 6 additional nodes disconnected at 10:23:13 hrs
  WARNING: System disconnected because of Link 14
   
  WARNING: Negative pressures at 10:28:58 hrs.
  WARNING: Node 14 disconnected at 10:28:58 hrs
  WARNING: Node 15 disconnected at 10:28:58 hrs
  WARNING: Node 16 disconnected at 10:28:58 hrs
  WARNING: Node 17 disconnected at 10:28:58 hrs
  WARNING: Node 18 disconnected at 10:28:58 hrs
  WARNING: Node 19 disconnected at 10:28:58 hrs
  WARNING: Node 20 disconnected at 10:28:58 hrs
  WARNING: Node 21 disconnected at 10:28:58 hrs
  WARNING: Node 22 disconnected at 10:28:58 hrs
  WARNING: Node 23 disconnected at 10:28:58 hrs
  WARNING: 6 additional nodes disconnected at 10:28:58 hrs
  WARNING: System disconnected because of Link 14
   
  WARNING: Negative pressures at 10:34:43 hrs.
  WARNING: Node 14 disconnected at 10:34:43 hrs
  WARNING: Node 15 disconnected at 10:34:43 hrs
  WARNING: Node 16 disconnected at 10:34:43 hrs
  WARNING: Node 17 disconnected at 10:34:43 hrs
  WARNING: Node 18 disconnected at 10:34:43 hrs
  WARNING: Node 19 disconnected at 10:34:43 hrs
  WARNING: Node 20 disconnected at 10:34:43 hrs
  WARNING: Node 21 disconnected at 10:34:43 hrs
  WARNING: Node 22 disconnected at 10:34:43 hrs
  WARNING: Node 23 disconnected at 10:34:43 hrs
  WARNING: 6 additional nodes disconnected at 10:34:43 hrs
  WARNING: System disconnected because of Link 14
   
  WARNING: Negative pressures at 10:40:28 hrs.
  WARNING: Node 14 disconnected at 10:40:28 hrs
  WARNING: Node 15 disconnected at 10:40:28 hrs
  WARNING: Node 16 disconnected at 10:40:28 hrs
  WARNING: Node 17 disconnected at 10:40:28 hrs
  WARNING: Node 18 disconnected at 10:40:28 hrs
  WARNING: Node 19 disconnected at 10:40:28 hrs
  WARNING: Node 20 disconnected at 10:40:28 hrs
  WARNING: Node 21 disconnected at 10:40:28 hrs
  WARNING: Node 22 disconnected at 10:40:28 hrs
  WARNING: Node 23 disconnected at 10:40:28 hrs
  WARNING: 6 additional nodes disconnected at 10:40:28 hrs
  WARNING: System disconnected because of Link 14
   
  WARNING: Negative pressures at 10:46:13 hrs.
  WARNING: Node 14 disconnected at 10:46:13 hrs
  WARNING: Node 15 disconnected at 10:46:13 hrs
  WARNING: Node 16 disconnected at 10:46:13 hrs
  WARNING: Node 17 disconnected at 10:46:13 hrs
  WARNING: Node 18 disconnected at 10:46:13 hrs
  WARNING: Node 19 disconnected at 10:46:13 hrs
  WARNING: Node 20 disconnected at 10:46:13 hrs
  WARNING: Node 21 disconnected at 10:46:13 hrs
  WARNING: Node 22 disconnected at 10:46:13 hrs
  WARNING: Node 23 disconnected at 10:46:13 hrs
  WARNING: 6 additional nodes disconnected at 10:46:13 hrs
  WARNING: System disconnected because of Link 14
   
  WARNING: Negative pressures at 10:51:58 hrs.
  WARNING: Node 14 disconnected at 10:51:58 hrs
  WARNING: Node 15 disconnected at 10:51:58 hrs
  WARNING: Node 16 disconnected at 10:51:58 hrs
  WARNING: Node 17 disconnected at 10:51:58 hrs
  WARNING: Node 18 disconnected at 10:51:58 hrs
  WARNING: Node 19 disconnected at 10:51:58 hrs
  WARNING: Node 20 disconnected at 10:51:58 hrs
  WARNING: Node 21 disconnected at 10:51:58 hrs
  WARNING: Node 22 disconnected at 10:51:58 hrs
  WARNING: Node 23 disconnected at 10:51:58 hrs
  WARNING: 6 additional nodes disconnected at 10:51:58 hrs
  WARNING: System disconnected because of Link 14
   
  WARNING: Negative pressures at 10:57:43 hrs.
  WARNING: Node 14 disconnected at 10:57:43 hrs
  WARNING: Node 15 disconnected at 10:57:43 hrs
  WARNING: Node 16 disconnected at 10:57:43 hrs
  WARNING: Node 17 disconnected at 10:57:43 hrs
  WARNING: Node 18 disconnected at 10:57:43 hrs
  WARNING: Node 19 disconnected at 10:57:43 hrs
  WARNING: Node 20 disconnected at 10:57:43 hrs
  WARNING: Node 21 disconnected at 10:57:43 hrs
  WARNING: Node 22 disconnected at 10:57:43 hrs
  WARNING: Node 23 disconnected at 10:57:43 hrs
  WARNING: 6 additional nodes disconnected at 10:57:43 hrs
  WARNING: System disconnected because of Link 14
   
  WARNING: Negative pressures at 11:03:52 hrs.
  WARNING: Node 14 disconnected at 11:03:52 hrs
  WARNING: Node 15 disconnected at 11:03:52 hrs
  WARNING: Node 16 disconnected at 11:03:52 hrs
  WARNING: Node 17 disconnected at 11:03:52 hrs
  WARNING: Node 18 disconnected at 11:03:52 hrs
  WARNING: Node 19 disconnected at 11:03:52 hrs
  WARNING: Node 20 disconnected at 11:03:52 hrs
  WARNING: Node 21 disconnected at 11:03:52 hrs
  WARNING: Node 22 disconnected at 11:03:52 hrs
  WARNING: Node 23 disconnected at 11:03:52 hrs
  WARNING: 6 additional nodes disconnected at 11:03:52 hrs
  WARNING: System disconnected because of Link 14
   
  WARNING: Negative pressures at 11:08:47 hrs.
  WARNING: Node 14 disconnected at 11:08:47 hrs
  WARNING: Node 15 disconnected at 11:08:47 hrs
  WARNING: Node 16 disconnected at 11:08:47 hrs
  WARNING: Node 17 disconnected at 11:08:47 hrs
  WARNING: Node 18 disconnected at 11:08:47 hrs
  WARNING: Node 19 disconnected at 11:08:47 hrs
  WARNING: Node 20 disconnected at 11:08:47 hrs
  WARNING: Node 21 disconnected at 11:08:47 hrs
  WARNING: Node 22 disconnected at 11:08:47 hrs
  WARNING: Node 23 disconnected at 11:08:47 hrs
  WARNING: 6 additional nodes disconnected at 11:08:47 hrs
  WARNING: System disconnected because of Link 14
   
  WARNING: Negative pressures at 11:13:42 hrs.
  WARNING: Node 14 disconnected at 11:13:42 hrs
  WARNING: Node 15 disconnected at 11:13:42 hrs
  WARNING: Node 16 disconnected at 11:13:42 hrs
  WARNING: Node 17 disconnected at 11:13:42 hrs
  WARNING: Node 18 disconnected at 11:13:42 hrs
  WARNING: Node 19 disconnected at 11:13:42 hrs
  WARNING: Node 20 disconnected at 11:13:42 hrs
  WARNING: Node 21 disconnected at 11:13:42 hrs
  WARNING: Node 22 disconnected at 11:13:42 hrs
  WARNING: Node 23 disconnected at 11:13:42 hrs
  WARNING: 6 additional nodes disconnected at 11:13:42 hrs
  WARNING: System disconnected because of Link 14
   
  WARNING: Negative pressures at 11:18:37 hrs.
  WARNING: Node 14 disconnected at 11:18:37 hrs
  WARNING: Node 15 disconnected at 11:18:37 hrs
  WARNING: Node 16 disconnected at 11:18:37 hrs
  WARNING: Node 17 disconnected at 11:18:37 hrs
  WARNING: Node 18 disconnected at 11:18:37 hrs
  WARNING: Node 19 disconnected at 11:18:37 hrs
  WARNING: Node 20 disconnected at 11:18:37 hrs
  WARNING: Node 21 disconnected at 11:18:37 hrs
  WARNING: Node 22 disconnected at 11:18:37 hrs
  WARNING: Node 23 disconnected at 11:18:37 hrs
  WARNING: 6 additional nodes disconnected at 11:18:37 hrs
  WARNING: System disconnected because of Link 14
   
  WARNING: Negative pressures at 11:23:32 hrs.
  WARNING: Node 14 disconnected at 11:23:32 hrs
  WARNING: Node 15 disconnected at 11:23:32 hrs
  WARNING: Node 16 disconnected at 11:23:32 hrs
  WARNING: Node 17 disconnected at 11:23:32 hrs
  WARNING: Node 18 disconnected at 11:23:32 hrs
  WARNING: Node 19 disconnected at 11:23:32 hrs
  WARNING: Node 20 disconnected at 11:23:32 hrs
  WARNING: Node 21 disconnected at 11:23:32 hrs
  WARNING: Node 22 disconnected at 11:23:32 hrs
  WARNING: Node 23 disconnected at 11:23:32 hrs
  WARNING: 6 additional nodes disconnected at 11:23:32 hrs
  WARNING: System disconnected because of Link 14
   
  WARNING: Negative pressures at 11:28:27 hrs.
  WARNING: Node 14 disconnected at 11:28:27 hrs
  WARNING: Node 15 disconnected at 11:28:27 hrs
  WARNING: Node 16 disconnected at 11:28:27 hrs
  WARNING: Node 17 disconnected at 11:28:27 hrs
  WARNING: Node 18 disconnected at 11:28:27 hrs
  WARNING: Node 19 disconnected at 11:28:27 hrs
  WARNING: Node 20 disconnected at 11:28:27 hrs
  WARNING: Node 21 disconnected at 11:28:27 hrs
  WARNING: Node 22 disconnected at 11:28:27 hrs
  WARNING: Node 23 disconnected at 11:28:27 hrs
  WARNING: 6 additional nodes disconnected at 11:28:27 hrs
  WARNING: System disconnected because of Link 14
   
  WARNING: Negative pressures at 11:33:22 hrs.
  WARNING: Node 14 disconnected at 11:33:22 hrs
  WARNING: Node 15 disconnected at 11:33:22 hrs
  WARNING: Node 16 disconnected at 11:33:22 hrs
  WARNING: Node 17 disconnected at 11:33:22 hrs
  WARNING: Node 18 disconnected at 11:33:22 hrs
  WARNING: Node 19 disconnected at 11:33:22 hrs
  WARNING: Node 20 disconnected at 11:33:22 hrs
  WARNING: Node 21 disconnected at 11:33:22 hrs
  WARNING: Node 22 disconnected at 11:33:22 hrs
  WARNING: Node 23 disconnected at 11:33:22 hrs
  WARNING: 6 additional nodes disconnected at 11:33:22 hrs
  WARNING: System disconnected because of Link 14
   
  WARNING: Negative pressures at 11:38:17 hrs.
  WARNING: Node 14 disconnected at 11:38:17 hrs
  WARNING: Node 15 disconnected at 11:38:17 hrs
  WARNING: Node 16 disconnected at 11:38:17 hrs
  WARNING: Node 17 disconnected at 11:38:17 hrs
  WARNING: Node 18 disconnected at 11:38:17 hrs
  WARNING: Node 19 disconnected at 11:38:17 hrs
  WARNING: Node 20 disconnected at 11:38:17 hrs
  WARNING: Node 21 disconnected at 11:38:17 hrs
  WARNING: Node 22 disconnected at 11:38:17 hrs
  WARNING: Node 23 disconnected at 11:38:17 hrs
  WARNING: 6 additional nodes disconnected at 11:38:17 hrs
  WARNING: System disconnected because of Link 14
   
  WARNING: Negative pressures at 11:43:12 hrs.
  WARNING: Node 14 disconnected at 11:43:12 hrs
  WARNING: Node 15 disconnected at 11:43:12 hrs
  WARNING: Node 16 disconnected at 11:43:12 hrs
  WARNING: Node 17 disconnected at 11:43:12 hrs
  WARNING: Node 18 disconnected at 11:43:12 hrs
  WARNING: Node 19 disconnected at 11:43:12 hrs
  WARNING: Node 20 disconnected at 11:43:12 hrs
  WARNING: Node 21 disconnected at 11:43:12 hrs
  WARNING: Node 22 disconnected at 11:43:12 hrs
  WARNING: Node 23 disconnected at 11:43:12 hrs
  WARNING: 6 additional nodes disconnected at 11:43:12 hrs
  WARNING: System disconnected because of Link 14
   
  WARNING: Negative pressures at 11:48:07 hrs.
  WARNING: Node 14 disconnected at 11:48:07 hrs
  WARNING: Node 15 disconnected at 11:48:07 hrs
  WARNING: Node 16 disconnected at 11:48:07 hrs
  WARNING: Node 17 disconnected at 11:48:07 hrs
  WARNING: Node 18 disconnected at 11:48:07 hrs
  WARNING: Node 19 disconnected at 11:48:07 hrs
  WARNING: Node 20 disconnected at 11:48:07 hrs
  WARNING: Node 21 disconnected at 11:48:07 hrs
  WARNING: Node 22 disconnected at 11:48:07 hrs
  WARNING: Node 23 disconnected at 11:48:07 hrs
  WARNING: 6 additional nodes disconnected at 11:48:07 hrs
  WARNING: System disconnected because of Link 14
   
  WARNING: Negative pressures at 11:53:02 hrs.
  WARNING: Node 14 disconnected at 11:53:02 hrs
  WARNING: Node 15 disconnected at 11:53:02 hrs
  WARNING: Node 16 disconnected at 11:53:02 hrs
  WARNING: Node 17 disconnected at 11:53:02 hrs
  WARNING: Node 18 disconnected at 11:53:02 hrs
  WARNING: Node 19 disconnected at 11:53:02 hrs
  WARNING: Node 20 disconnected at 11:53:02 hrs
  WARNING: Node 21 disconnected at 11:53:02 hrs
  WARNING: Node 22 disconnected at 11:53:02 hrs
  WARNING: Node 23 disconnected at 11:53:02 hrs
  WARNING: 6 additional nodes disconnected at 11:53:02 hrs
  WARNING: System disconnected because of Link 14
   
  WARNING: Negative pressures at 11:57:57 hrs.
  WARNING: Node 14 disconnected at 11:57:57 hrs
  WARNING: Node 15 disconnected at 11:57:57 hrs
  WARNING: Node 16 disconnected at 11:57:57 hrs
  WARNING: Node 17 disconnected at 11:57:57 hrs
  WARNING: Node 18 disconnected at 11:57:57 hrs
  WARNING: Node 19 disconnected at 11:57:57 hrs
  WARNING: Node 20 disconnected at 11:57:57 hrs
  WARNING: Node 21 disconnected at 11:57:57 hrs
  WARNING: Node 22 disconnected at 11:57:57 hrs
  WARNING: Node 23 disconnected at 11:57:57 hrs
  WARNING: 6 additional nodes disconnected at 11:57:57 hrs
  WARNING: System disconnected because of Link 14
   
  WARNING: Negative pressures at 12:04:14 hrs.
  WARNING: Node 14 disconnected at 12:04:14 hrs
  WARNING: Node 15 disconnected at 12:04:14 hrs
  WARNING: Node 16 disconnected at 12:04:14 hrs
  WARNING: Node 17 disconnected at 12:04:14 hrs
  WARNING: Node 18 disconnected at 12:04:14 hrs
  WARNING: Node 19 disconnected at 12:04:14 hrs
  WARNING: Node 20 disconnected at 12:04:14 hrs
  WARNING: Node 21 disconnected at 12:04:14 hrs
  WARNING: Node 22 disconnected at 12:04:14 hrs
  WARNING: Node 23 disconnected at 12:04:14 hrs
  WARNING: 6 additional nodes disconnected at 12:04:14 hrs
  WARNING: System disconnected because of Link 14
   
  WARNING: Negative pressures at 12:09:40 hrs.
  WARNING: Node 14 disconnected at 12:09:40 hrs
  WARNING: Node 15 disconnected at 12:09:40 hrs
  WARNING: Node 16 disconnected at 12:09:40 hrs
  WARNING: Node 17 disconnected at 12:09:40 hrs
  WARNING: Node 18 disconnected at 12:09:40 hrs
  WARNING: Node 19 disconnected at 12:09:40 hrs
  WARNING: Node 20 disconnected at 12:09:40 hrs
  WARNING: Node 21 disconnected at 12:09:40 hrs
  WARNING: Node 22 disconnected at 12:09:40 hrs
  WARNING: Node 23 disconnected at 12:09:40 hrs
  WARNING: 6 additional nodes disconnected at 12:09:40 hrs
  WARNING: System disconnected because of Link 14
   
  WARNING: Negative pressures at 12:15:06 hrs.
  WARNING: Node 14 disconnected at 12:15:06 hrs
  WARNING: Node 15 disconnected at 12:15:06 hrs
  WARNING: Node 16 disconnected at 12:15:06 hrs
  WARNING: Node 17 disconnected at 12:15:06 hrs
  WARNING: Node 18 disconnected at 12:15:06 hrs
  WARNING: Node 19 disconnected at 12:15:06 hrs
  WARNING: Node 20 disconnected at 12:15:06 hrs
  WARNING: Node 21 disconnected at 12:15:06 hrs
  WARNING: Node 22 disconnected at 12:15:06 hrs
  WARNING: Node 23 disconnected at 12:15:06 hrs
  WARNING: 6 additional nodes disconnected at 12:15:06 hrs
  WARNING: System disconnected because of Link 14
   
  WARNING: Negative pressures at 12:20:32 hrs.
  WARNING: Node 14 disconnected at 12:20:32 hrs
  WARNING: Node 15 disconnected at 12:20:32 hrs
  WARNING: Node 16 disconnected at 12:20:32 hrs
  WARNING: Node 17 disconnected at 12:20:32 hrs
  WARNING: Node 18 disconnected at 12:20:32 hrs
  WARNING: Node 19 disconnected at 12:20:32 hrs
  WARNING: Node 20 disconnected at 12:20:32 hrs
  WARNING: Node 21 disconnected at 12:20:32 hrs
  WARNING: Node 22 disconnected at 12:20:32 hrs
  WARNING: Node 23 disconnected at 12:20:32 hrs
  WARNING: 6 additional nodes disconnected at 12:20:32 hrs
  WARNING: System disconnected because of Link 14
   
  WARNING: Negative pressures at 12:25:58 hrs.
  WARNING: Node 14 disconnected at 12:25:58 hrs
  WARNING: Node 15 disconnected at 12:25:58 hrs
  WARNING: Node 16 disconnected at 12:25:58 hrs
  WARNING: Node 17 disconnected at 12:25:58 hrs
  WARNING: Node 18 disconnected at 12:25:58 hrs
  WARNING: Node 19 disconnected at 12:25:58 hrs
  WARNING: Node 20 disconnected at 12:25:58 hrs
  WARNING: Node 21 disconnected at 12:25:58 hrs
  WARNING: Node 22 disconnected at 12:25:58 hrs
  WARNING: Node 23 disconnected at 12:25:58 hrs
  WARNING: 6 additional nodes disconnected at 12:25:58 hrs
  WARNING: System disconnected because of Link 14
   
  WARNING: Negative pressures at 12:31:24 hrs.
  WARNING: Node 14 disconnected at 12:31:24 hrs
  WARNING: Node 15 disconnected at 12:31:24 hrs
  WARNING: Node 16 disconnected at 12:31:24 hrs
  WARNING: Node 17 disconnected at 12:31:24 hrs
  WARNING: Node 18 disconnected at 12:31:24 hrs
  WARNING: Node 19 disconnected at 12:31:24 hrs
  WARNING: Node 20 disconnected at 12:31:24 hrs
  WARNING: Node 21 disconnected at 12:31:24 hrs
  WARNING: Node 22 disconnected at 12:31:24 hrs
  WARNING: Node 23 disconnected at 12:31:24 hrs
  WARNING: 6 additional nodes disconnected at 12:31:24 hrs
  WARNING: System disconnected because of Link 14
   
  WARNING: Negative pressures at 12:36:50 hrs.
  WARNING: Node 14 disconnected at 12:36:50 hrs
  WARNING: Node 15 disconnected at 12:36:50 hrs
  WARNING: Node 16 disconnected at 12:36:50 hrs
  WARNING: Node 17 disconnected at 12:36:50 hrs
  WARNING: Node 18 disconnected at 12:36:50 hrs
  WARNING: Node 19 disconnected at 12:36:50 hrs
  WARNING: Node 20 disconnected at 12:36:50 hrs
  WARNING: Node 21 disconnected at 12:36:50 hrs
  WARNING: Node 22 disconnected at 12:36:50 hrs
  WARNING: Node 23 disconnected at 12:36:50 hrs
  WARNING: 6 additional nodes disconnected at 12:36:50 hrs
  WARNING: System disconnected because of Link 14
   
  WARNING: Negative pressures at 12:42:16 hrs.
  WARNING: Node 14 disconnected at 12:42:16 hrs
  WARNING: Node 15 disconnected at 12:42:16 hrs
  WARNING: Node 16 disconnected at 12:42:16 hrs
  WARNING: Node 17 disconnected at 12:42:16 hrs
  WARNING: Node 18 disconnected at 12:42:16 hrs
  WARNING: Node 19 disconnected at 12:42:16 hrs
  WARNING: Node 20 disconnected at 12:42:16 hrs
  WARNING: Node 21 disconnected at 12:42:16 hrs
  WARNING: Node 22 disconnected at 12:42:16 hrs
  WARNING: Node 23 disconnected at 12:42:16 hrs
  WARNING: 6 additional nodes disconnected at 12:42:16 hrs
  WARNING: System disconnected because of Link 14
   
  WARNING: Negative pressures at 12:47:42 hrs.
  WARNING: Node 14 disconnected at 12:47:42 hrs
  WARNING: Node 15 disconnected at 12:47:42 hrs
  WARNING: Node 16 disconnected at 12:47:42 hrs
  WARNING: Node 17 disconnected at 12:47:42 hrs
  WARNING: Node 18 disconnected at 12:47:42 hrs
  WARNING: Node 19 disconnected at 12:47:42 hrs
  WARNING: Node 20 disconnected at 12:47:42 hrs
  WARNING: Node 21 disconnected at 12:47:42 hrs
  WARNING: Node 22 disconnected at 12:47:42 hrs
  WARNING: Node 23 disconnected at 12:47:42 hrs
  WARNING: 6 additional nodes disconnected at 12:47:42 hrs
  WARNING: System disconnected because of Link 14
   
  WARNING: Negative pressures at 12:53:08 hrs.
  WARNING: Node 14 disconnected at 12:53:08 hrs
  WARNING: Node 15 disconnected at 12:53:08 hrs
  WARNING: Node 16 disconnected at 12:53:08 hrs
  WARNING: Node 17 disconnected at 12:53:08 hrs
  WARNING: Node 18 disconnected at 12:53:08 hrs
  WARNING: Node 19 disconnected at 12:53:08 hrs
  WARNING: Node 20 disconnected at 12:53:08 hrs
  WARNING: Node 21 disconnected at 12:53:08 hrs
  WARNING: Node 22 disconnected at 12:53:08 hrs
  WARNING: Node 23 disconnected at 12:53:08 hrs
  WARNING: 6 additional nodes disconnected at 12:53:08 hrs
  WARNING: System disconnected because of Link 14
   
  WARNING: Negative pressures at 12:58:34 hrs.
  WARNING: Node 14 disconnected at 12:58:34 hrs
  WARNING: Node 15 disconnected at 12:58:34 hrs
  WARNING: Node 16 disconnected at 12:58:34 hrs
  WARNING: Node 17 disconnected at 12:58:34 hrs
  WARNING: Node 18 disconnected at 12:58:34 hrs
  WARNING: Node 19 disconnected at 12:58:34 hrs
  WARNING: Node 20 disconnected at 12:58:34 hrs
  WARNING: Node 21 disconnected at 12:58:34 hrs
  WARNING: Node 22 disconnected at 12:58:34 hrs
  WARNING: Node 23 disconnected at 12:58:34 hrs
  WARNING: 6 additional nodes disconnected at 12:58:34 hrs
  WARNING: System disconnected because of Link 14
   
  WARNING: Negative pressures at 13:04:47 hrs.
  WARNING: Node 14 disconnected at 13:04:47 hrs
  WARNING: Node 15 disconnected at 13:04:47 hrs
  WARNING: Node 16 disconnected at 13:04:47 hrs
  WARNING: Node 17 disconnected at 13:04:47 hrs
  WARNING: Node 18 disconnected at 13:04:47 hrs
  WARNING: Node 19 disconnected at 13:04:47 hrs
  WARNING: Node 20 disconnected at 13:04:47 hrs
  WARNING: Node 21 disconnected at 13:04:47 hrs
  WARNING: Node 22 disconnected at 13:04:47 hrs
  WARNING: Node 23 disconnected at 13:04:47 hrs
  WARNING: 6 additional nodes disconnected at 13:04:47 hrs
  WARNING: System disconnected because of Link 14
   
  WARNING: Negative pressures at 13:10:55 hrs.
  WARNING: Node 14 disconnected at 13:10:55 hrs
  WARNING: Node 15 disconnected at 13:10:55 hrs
  WARNING: Node 16 disconnected at 13:10:55 hrs
  WARNING: Node 17 disconnected at 13:10:55 hrs
  WARNING: Node 18 disconnected at 13:10:55 hrs
  WARNING: Node 19 disconnected at 13:10:55 hrs
  WARNING: Node 20 disconnected at 13:10:55 hrs
  WARNING: Node 21 disconnected at 13:10:55 hrs
  WARNING: Node 22 disconnected at 13:10:55 hrs
  WARNING: Node 23 disconnected at 13:10:55 hrs
  WARNING: 6 additional nodes disconnected at 13:10:55 hrs
  WARNING: System disconnected because of Link 14
   
  WARNING: Negative pressures at 13:17:03 hrs.
  WARNING: Node 14 disconnected at 13:17:03 hrs
  WARNING: Node 15 disconnected at 13:17:03 hrs
  WARNING: Node 16 disconnected at 13:17:03 hrs
  WARNING: Node 17 disconnected at 13:17:03 hrs
  WARNING: Node 18 disconnected at 13:17:03 hrs
  WARNING: Node 19 disconnected at 13:17:03 hrs
  WARNING: Node 20 disconnected at 13:17:03 hrs
  WARNING: Node 21 disconnected at 13:17:03 hrs
  WARNING: Node 22 disconnected at 13:17:03 hrs
  WARNING: Node 23 disconnected at 13:17:03 hrs
  WARNING: 6 additional nodes disconnected at 13:17:03 hrs
  WARNING: System disconnected because of Link 14
   
  WARNING: Negative pressures at 13:23:11 hrs.
  WARNING: Node 14 disconnected at 13:23:11 hrs
  WARNING: Node 15 disconnected at 13:23:11 hrs
  WARNING: Node 16 disconnected at 13:23:11 hrs
  WARNING: Node 17 disconnected at 13:23:11 hrs
  WARNING: Node 18 disconnected at 13:23:11 hrs
  WARNING: Node 19 disconnected at 13:23:11 hrs
  WARNING: Node 20 disconnected at 13:23:11 hrs
  WARNING: Node 21 disconnected at 13:23:11 hrs
  WARNING: Node 22 disconnected at 13:23:11 hrs
  WARNING: Node 23 disconnected at 13:23:11 hrs
  WARNING: 6 additional nodes disconnected at 13:23:11 hrs
  WARNING: System disconnected because of Link 14
   
  WARNING: Negative pressures at 13:29:19 hrs.
  WARNING: Node 14 disconnected at 13:29:19 hrs
  WARNING: Node 15 disconnected at 13:29:19 hrs
  WARNING: Node 16 disconnected at 13:29:19 hrs
  WARNING: Node 17 disconnected at 13:29:19 hrs
  WARNING: Node 18 disconnected at 13:29:19 hrs
  WARNING: Node 19 disconnected at 13:29:19 hrs
  WARNING: Node 20 disconnected at 13:29:19 hrs
  WARNING: Node 21 disconnected at 13:29:19 hrs
  WARNING: Node 22 disconnected at 13:29:19 hrs
  WARNING: Node 23 disconnected at 13:29:19 hrs
  WARNING: 6 additional nodes disconnected at 13:29:19 hrs
  WARNING: System disconnected because of Link 14
   
  WARNING: Negative pressures at 13:35:27 hrs.
  WARNING: Node 14 disconnected at 13:35:27 hrs
  WARNING: Node 15 disconnected at 13:35:27 hrs
  WARNING: Node 16 disconnected at 13:35:27 hrs
  WARNING: Node 17 disconnected at 13:35:27 hrs
  WARNING: Node 18 disconnected at 13:35:27 hrs
  WARNING: Node 19 disconnected at 13:35:27 hrs
  WARNING: Node 20 disconnected at 13:35:27 hrs
  WARNING: Node 21 disconnected at 13:35:27 hrs
  WARNING: Node 22 disconnected at 13:35:27 hrs
  WARNING: Node 23 disconnected at 13:35:27 hrs
  WARNING: 6 additional nodes disconnected at 13:35:27 hrs
  WARNING: System disconnected because of Link 14
   
  WARNING: Negative pressures at 13:41:35 hrs.
  WARNING: Node 14 disconnected at 13:41:35 hrs
  WARNING: Node 15 disconnected at 13:41:35 hrs
  WARNING: Node 16 disconnected at 13:41:35 hrs
  WARNING: Node 17 disconnected at 13:41:35 hrs
  WARNING: Node 18 disconnected at 13:41:35 hrs
  WARNING: Node 19 disconnected at 13:41:35 hrs
  WARNING: Node 20 disconnected at 13:41:35 hrs
  WARNING: Node 21 disconnected at 13:41:35 hrs
  WARNING: Node 22 disconnected at 13:41:35 hrs
  WARNING: Node 23 disconnected at 13:41:35 hrs
  WARNING: 6 additional nodes disconnected at 13:41:35 hrs
  WARNING: System disconnected because of Link 14
   
  WARNING: Negative pressures at 13:47:43 hrs.
  WARNING: Node 14 disconnected at 13:47:43 hrs
  WARNING: Node 15 disconnected at 13:47:43 hrs
  WARNING: Node 16 disconnected at 13:47:43 hrs
  WARNING: Node 17 disconnected at 13:47:43 hrs
  WARNING: Node 18 disconnected at 13:47:43 hrs
  WARNING: Node 19 disconnected at 13:47:43 hrs
  WARNING: Node 20 disconnected at 13:47:43 hrs
  WARNING: Node 21 disconnected at 13:47:43 hrs
  WARNING: Node 22 disconnected at 13:47:43 hrs
  WARNING: Node 23 disconnected at 13:47:43 hrs
  WARNING: 6 additional nodes disconnected at 13:47:43 hrs
  WARNING: System disconnected because of Link 14
   
  WARNING: Negative pressures at 13:53:51 hrs.
  WARNING: Node 14 disconnected at 13:53:51 hrs
  WARNING: Node 15 disconnected at 13:53:51 hrs
  WARNING: Node 16 disconnected at 13:53:51 hrs
  WARNING: Node 17 disconnected at 13:53:51 hrs
  WARNING: Node 18 disconnected at 13:53:51 hrs
  WARNING: Node 19 disconnected at 13:53:51 hrs
  WARNING: Node 20 disconnected at 13:53:51 hrs
  WARNING: Node 21 disconnected at 13:53:51 hrs
  WARNING: Node 22 disconnected at 13:53:51 hrs
  WARNING: Node 23 disconnected at 13:53:51 hrs
  WARNING: 6 additional nodes disconnected at 13:53:51 hrs
  WARNING: System disconnected because of Link 14
   
  WARNING: Negative pressures at 13:59:59 hrs.
  WARNING: Node 14 disconnected at 13:59:59 hrs
  WARNING: Node 15 disconnected at 13:59:59 hrs
  WARNING: Node 16 disconnected at 13:59:59 hrs
  WARNING: Node 17 disconnected at 13:59:59 hrs
  WARNING: Node 18 disconnected at 13:59:59 hrs
  WARNING: Node 19 disconnected at 13:59:59 hrs
  WARNING: Node 20 disconnected at 13:59:59 hrs
  WARNING: Node 21 disconnected at 13:59:59 hrs
  WARNING: Node 22 disconnected at 13:59:59 hrs
  WARNING: Node 23 disconnected at 13:59:59 hrs
  WARNING: 6 additional nodes disconnected at 13:59:59 hrs
  WARNING: System disconnected because of Link 14
   
  WARNING: Negative pressures at 14:00:00 hrs.
  WARNING: Node 14 disconnected at 14:00:00 hrs
  WARNING: Node 15 disconnected at 14:00:00 hrs
  WARNING: Node 16 disconnected at 14:00:00 hrs
  WARNING: Node 17 disconnected at 14:00:00 hrs
  WARNING: Node 18 disconnected at 14:00:00 hrs
  WARNING: Node 19 disconnected at 14:00:00 hrs
  WARNING: Node 20 disconnected at 14:00:00 hrs
  WARNING: Node 21 disconnected at 14:00:00 hrs
  WARNING: Node 22 disconnected at 14:00:00 hrs
  WARNING: Node 23 disconnected at 14:00:00 hrs
  WARNING: 6 additional nodes disconnected at 14:00:00 hrs
  WARNING: System disconnected because of Link 14
   
  WARNING: Negative pressures at 14:06:08 hrs.
  WARNING: Node 14 disconnected at 14:06:08 hrs
  WARNING: Node 15 disconnected at 14:06:08 hrs
  WARNING: Node 16 disconnected at 14:06:08 hrs
  WARNING: Node 17 disconnected at 14:06:08 hrs
  WARNING: Node 18 disconnected at 14:06:08 hrs
  WARNING: Node 19 disconnected at 14:06:08 hrs
  WARNING: Node 20 disconnected at 14:06:08 hrs
  WARNING: Node 21 disconnected at 14:06:08 hrs
  WARNING: Node 22 disconnected at 14:06:08 hrs
  WARNING: Node 23 disconnected at 14:06:08 hrs
  WARNING: 6 additional nodes disconnected at 14:06:08 hrs
  WARNING: System disconnected because of Link 14
   
  WARNING: Negative pressures at 14:12:16 hrs.
  WARNING: Node 14 disconnected at 14:12:16 hrs
  WARNING: Node 15 disconnected at 14:12:16 hrs
  WARNING: Node 16 disconnected at 14:12:16 hrs
  WARNING: Node 17 disconnected at 14:12:16 hrs
  WARNING: Node 18 disconnected at 14:12:16 hrs
  WARNING: Node 19 disconnected at 14:12:16 hrs
  WARNING: Node 20 disconnected at 14:12:16 hrs
  WARNING: Node 21 disconnected at 14:12:16 hrs
  WARNING: Node 22 disconnected at 14:12:16 hrs
  WARNING: Node 23 disconnected at 14:12:16 hrs
  WARNING: 6 additional nodes disconnected at 14:12:16 hrs
  WARNING: System disconnected because of Link 14
   
  WARNING: Negative pressures at 14:18:24 hrs.
  WARNING: Node 14 disconnected at 14:18:24 hrs
  WARNING: Node 15 disconnected at 14:18:24 hrs
  WARNING: Node 16 disconnected at 14:18:24 hrs
  WARNING: Node 17 disconnected at 14:18:24 hrs
  WARNING: Node 18 disconnected at 14:18:24 hrs
  WARNING: Node 19 disconnected at 14:18:24 hrs
  WARNING: Node 20 disconnected at 14:18:24 hrs
  WARNING: Node 21 disconnected at 14:18:24 hrs
  WARNING: Node 22 disconnected at 14:18:24 hrs
  WARNING: Node 23 disconnected at 14:18:24 hrs
  WARNING: 6 additional nodes disconnected at 14:18:24 hrs
  WARNING: System disconnected because of Link 14
   
  WARNING: Negative pressures at 14:24:32 hrs.
  WARNING: Node 14 disconnected at 14:24:32 hrs
  WARNING: Node 15 disconnected at 14:24:32 hrs
  WARNING: Node 16 disconnected at 14:24:32 hrs
  WARNING: Node 17 disconnected at 14:24:32 hrs
  WARNING: Node 18 disconnected at 14:24:32 hrs
  WARNING: Node 19 disconnected at 14:24:32 hrs
  WARNING: Node 20 disconnected at 14:24:32 hrs
  WARNING: Node 21 disconnected at 14:24:32 hrs
  WARNING: Node 22 disconnected at 14:24:32 hrs
  WARNING: Node 23 disconnected at 14:24:32 hrs
  WARNING: 6 additional nodes disconnected at 14:24:32 hrs
  WARNING: System disconnected because of Link 14
   
  WARNING: Negative pressures at 14:30:40 hrs.
  WARNING: Node 14 disconnected at 14:30:40 hrs
  WARNING: Node 15 disconnected at 14:30:40 hrs
  WARNING: Node 16 disconnected at 14:30:40 hrs
  WARNING: Node 17 disconnected at 14:30:40 hrs
  WARNING: Node 18 disconnected at 14:30:40 hrs
  WARNING: Node 19 disconnected at 14:30:40 hrs
  WARNING: Node 20 disconnected at 14:30:40 hrs
  WARNING: Node 21 disconnected at 14:30:40 hrs
  WARNING: Node 22 disconnected at 14:30:40 hrs
  WARNING: Node 23 disconnected at 14:30:40 hrs
  WARNING: 6 additional nodes disconnected at 14:30:40 hrs
  WARNING: System disconnected because of Link 14
   
  WARNING: Negative pressures at 14:36:48 hrs.
  WARNING: Node 14 disconnected at 14:36:48 hrs
  WARNING: Node 15 disconnected at 14:36:48 hrs
  WARNING: Node 16 disconnected at 14:36:48 hrs
  WARNING: Node 17 disconnected at 14:36:48 hrs
  WARNING: Node 18 disconnected at 14:36:48 hrs
  WARNING: Node 19 disconnected at 14:36:48 hrs
  WARNING: Node 20 disconnected at 14:36:48 hrs
  WARNING: Node 21 disconnected at 14:36:48 hrs
  WARNING: Node 22 disconnected at 14:36:48 hrs
  WARNING: Node 23 disconnected at 14:36:48 hrs
  WARNING: 6 additional nodes disconnected at 14:36:48 hrs
  WARNING: System disconnected because of Link 14
   
  WARNING: Negative pressures at 14:42:56 hrs.
  WARNING: Node 14 disconnected at 14:42:56 hrs
  WARNING: Node 15 disconnected at 14:42:56 hrs
  WARNING: Node 16 disconnected at 14:42:56 hrs
  WARNING: Node 17 disconnected at 14:42:56 hrs
  WARNING: Node 18 disconnected at 14:42:56 hrs
  WARNING: Node 19 disconnected at 14:42:56 hrs
  WARNING: Node 20 disconnected at 14:42:56 hrs
  WARNING: Node 21 disconnected at 14:42:56 hrs
  WARNING: Node 22 disconnected at 14:42:56 hrs
  WARNING: Node 23 disconnected at 14:42:56 hrs
  WARNING: 6 additional nodes disconnected at 14:42:56 hrs
  WARNING: System disconnected because of Link 14
   
  WARNING: Negative pressures at 14:49:04 hrs.
  WARNING: Node 14 disconnected at 14:49:04 hrs
  WARNING: Node 15 disconnected at 14:49:04 hrs
  WARNING: Node 16 disconnected at 14:49:04 hrs
  WARNING: Node 17 disconnected at 14:49:04 hrs
  WARNING: Node 18 disconnected at 14:49:04 hrs
  WARNING: Node 19 disconnected at 14:49:04 hrs
  WARNING: Node 20 disconnected at 14:49:04 hrs
  WARNING: Node 21 disconnected at 14:49:04 hrs
  WARNING: Node 22 disconnected at 14:49:04 hrs
  WARNING: Node 23 disconnected at 14:49:04 hrs
  WARNING: 6 additional nodes disconnected at 14:49:04 hrs
  WARNING: System disconnected because of Link 14
   
  WARNING: Negative pressures at 14:55:12 hrs.
  WARNING: Node 14 disconnected at 14:55:12 hrs
  WARNING: Node 15 disconnected at 14:55:12 hrs
  WARNING: Node 16 disconnected at 14:55:12 hrs
  WARNING: Node 17 disconnected at 14:55:12 hrs
  WARNING: Node 18 disconnected at 14:55:12 hrs
  WARNING: Node 19 disconnected at 14:55:12 hrs
[...]
  7                    0.00      1.34      1.34
  8                    0.00      1.34      1.34
  9                    0.00     18.93     18.93
  10                   0.00     18.93     18.93
  11                   0.00     18.93     18.93
  12                   0.00      9.58      9.58
  13                   0.00      9.27      9.27
  14                   0.65      8.37      8.37
  15                   0.65      8.15      8.15
  16                   0.65      8.10      8.10
  17                   0.65      8.08      8.08
  18                   0.65      8.15      8.15
  19                   0.65      8.12      8.12
  20                   0.65      8.09      8.09
  21                   0.65      8.08      8.08
  22                   0.65      8.10      8.10
  23                   0.65      8.09      8.09
  24                   0.65      8.08      8.08
  25                   0.65      8.08      8.08
  26                   0.65      8.08      8.08
  27                   0.65      8.08      8.08
  28                   0.65      8.08      8.08
  29                   0.65      8.08      8.08
  4                  -24.73      1.50      0.00  Reservoir
  1                   14.33      9.69      0.69  Tank
  2                    0.00      6.60      0.60  Tank
   
   
  Node Results at 13:00:00 hrs:
  ----------------------------------------------
                     Demand      Head  Pressure
  Node                  L/s         m         m
  ----------------------------------------------
  6                    0.00      1.34      1.34
  7                    0.00      1.34      1.34
  8                    0.00      1.34      1.34
  9                    0.00     18.95     18.95
  10                   0.00     18.95     18.95
  11                   0.00     18.95     18.95
  12                   0.00      9.65      9.65
  13                   0.00      9.42      9.42
  14                   0.55      8.76      8.76
  15                   0.55      8.60      8.60
  16                   0.55      8.55      8.55
  17                   0.55      8.55      8.55
  18                   0.55      8.60      8.60
  19                   0.55      8.57      8.57
  20                   0.55      8.55      8.55
  21                   0.55      8.54      8.54
  22                   0.55      8.55      8.55
  23                   0.55      8.55      8.55
  24                   0.55      8.54      8.54
  25                   0.55      8.54      8.54
  26                   0.55      8.55      8.55
  27                   0.55      8.54      8.54
  28                   0.55      8.54      8.54
  29                   0.55      8.54      8.54
  4                  -24.69      1.50      0.00  Reservoir
  1                   15.89      9.72      0.72  Tank
  2                    0.00      6.60      0.60  Tank
   
   
  Node Results at 14:00:00 hrs:
  ----------------------------------------------
                     Demand      Head  Pressure
  Node                  L/s         m         m
  ----------------------------------------------
  6                    0.00      1.33      1.33
  7                    0.00      1.33      1.33
  8                    0.00      1.33      1.33
  9                    0.00     18.63     18.63
  10                   0.00     18.63     18.63
  11                   0.00     18.63     18.63
  12                   0.00 -4.74e+06 -4.74e+06
  13                   0.00 -4.74e+06 -4.74e+06
  14                   0.55 -4.74e+06 -4.74e+06
  15                   0.55 -4.74e+06 -4.74e+06
  16                   0.55 -4.74e+06 -4.74e+06
  17                   0.55 -4.74e+06 -4.74e+06
  18                   0.55 -4.74e+06 -4.74e+06
  19                   0.55 -4.74e+06 -4.74e+06
  20                   0.55 -4.74e+06 -4.74e+06
  21                   0.55 -4.74e+06 -4.74e+06
  22                   0.55 -4.74e+06 -4.74e+06
  23                   0.55 -4.74e+06 -4.74e+06
  24                   0.55 -4.74e+06 -4.74e+06
  25                   0.55 -4.74e+06 -4.74e+06
  26                   0.55 -4.74e+06 -4.74e+06
  27                   0.55 -4.74e+06 -4.74e+06
  28                   0.55 -4.74e+06 -4.74e+06
  29                   0.55 -4.74e+06 -4.74e+06
  4                  -25.27      1.50      0.00  Reservoir
  1                   25.27      9.00      0.00  Tank
  2                    0.00      6.60      0.60  Tank
   
   
  Node Results at 15:00:00 hrs:
  ----------------------------------------------
                     Demand      Head  Pressure
  Node                  L/s         m         m
  ----------------------------------------------
  6                    0.00      1.33      1.33
  7                    0.00      1.33      1.33
  8                    0.00      1.33      1.33
  9                    0.00     18.75     18.75
  10                   0.00     18.75     18.75
  11                   0.00     18.75     18.75
  12                   0.00      9.16      9.16
  13                   0.00      8.93      8.93
  14                   0.55      8.27      8.27
  15                   0.55      8.11      8.11
  16                   0.55      8.06      8.06
  17                   0.55      8.06      8.06
  18                   0.55      8.11      8.11
  19                   0.55      8.08      8.08
  20                   0.55      8.06      8.06
  21                   0.55      8.05      8.05
  22                   0.55      8.06      8.06
  23                   0.55      8.06      8.06
  24                   0.55      8.05      8.05
  25                   0.55      8.05      8.05
  26                   0.55      8.06      8.06
  27                   0.55      8.05      8.05
  28                   0.55      8.05      8.05
  29                   0.55      8.05      8.05
  4                  -25.11      1.50      0.00  Reservoir
  1                   16.31      9.23      0.23  Tank
  2                    0.00      6.60      0.60  Tank
   
   
  Node Results at 16:00:00 hrs:
  ----------------------------------------------
                     Demand      Head  Pressure
  Node                  L/s         m         m
  ----------------------------------------------
  6                    0.00      1.34      1.34
  7                    0.00      1.34      1.34
  8                    0.00      1.34      1.34
  9                    0.00     18.76     18.76
  10                   0.00     18.76     18.76
  11                   0.00     18.76     18.76
  12                   0.00      9.18      9.18
  13                   0.00      8.96      8.96
  14                   0.55      8.30      8.30
  15                   0.55      8.13      8.13
  16                   0.55      8.09      8.09
  17                   0.55      8.08      8.08
  18                   0.55      8.13      8.13
  19                   0.55      8.11      8.11
  20                   0.55      8.09      8.09
  21                   0.55      8.08      8.08
  22                   0.55      8.09      8.09
  23                   0.55      8.09      8.09
  24                   0.55      8.08      8.08
  25                   0.55      8.08      8.08
  26                   0.55      8.08      8.08
  27                   0.55      8.08      8.08
  28                   0.55      8.08      8.08
  29                   0.55      8.08      8.08
  4                  -25.09      1.50      0.00  Reservoir
  1                   16.29      9.26      0.26  Tank
  2                    0.00      6.60      0.60  Tank
   
   
  Node Results at 17:00:00 hrs:
  ----------------------------------------------
                     Demand      Head  Pressure
  Node                  L/s         m         m
  ----------------------------------------------
  6                    0.00      1.34      1.34
  7                    0.00      1.34      1.34
  8                    0.00      1.34      1.34
  9                    0.00     18.75     18.75
  10                   0.00     18.75     18.75
  11                   0.00     18.75     18.75
  12                   0.00      9.14      9.14
  13                   0.00      8.83      8.83
  14                   0.65      7.93      7.93
  15                   0.65      7.71      7.71
  16                   0.65      7.65      7.65
  17                   0.65      7.64      7.64
  18                   0.65      7.71      7.71
  19                   0.65      7.67      7.67
  20                   0.65      7.65      7.65
  21                   0.65      7.64      7.64
  22                   0.65      7.65      7.65
  23                   0.65      7.65      7.65
  24                   0.65      7.64      7.64
  25                   0.65      7.64      7.64
  26                   0.65      7.64      7.64
  27                   0.65      7.64      7.64
  28                   0.65      7.64      7.64
  29                   0.65      7.63      7.63
  4                  -25.10      1.50      0.00  Reservoir
  1                   14.70      9.25      0.25  Tank
  2                    0.00      6.60      0.60  Tank
   
   
  Node Results at 18:00:00 hrs:
  ----------------------------------------------
                     Demand      Head  Pressure
  Node                  L/s         m         m
  ----------------------------------------------
  6                    0.00      1.33      1.33
  7                    0.00      1.33      1.33
  8                    0.00      1.33      1.33
  9                    0.00     18.64     18.64
  10                   0.00     18.64     18.64
  11                   0.00     18.64     18.64
  12                   0.00      8.88      8.88
  13                   0.00      8.47      8.47
  14                   0.75      7.30      7.30
  15                   0.75      7.01      7.01
  16                   0.75      6.94      6.94
  17                   0.75      6.92      6.92
  18                   0.75      7.01      7.01
  19                   0.75      6.96      6.96
  20                   0.75      6.93      6.93
  21                   0.75      6.92      6.92
  22                   0.75      6.94      6.94
  23                   0.75      6.93      6.93
  24                   0.75      6.92      6.92
  25                   0.75      6.91      6.91
  26                   0.75      6.92      6.92
  27                   0.75      6.92      6.92
  28                   0.75      6.91      6.91
  29                   0.75      6.91      6.91
  4                  -25.26      1.50      0.00  Reservoir
  1                   13.26      9.01      0.01  Tank
  2                    0.00      6.60      0.60  Tank
   
   
  Node Results at 19:00:00 hrs:
  ----------------------------------------------
                     Demand      Head  Pressure
  Node                  L/s         m         m
  ----------------------------------------------
  6                    0.00      1.33      1.33
  7                    0.00      1.33      1.33
  8                    0.00      1.33      1.33
  9                    0.00     18.68     18.68
  10                   0.00     18.68     18.68
  11                   0.00     18.68     18.68
  12                   0.00      9.00      9.00
  13                   0.00      8.73      8.73
  14                   0.60      7.96      7.96
  15                   0.60      7.77      7.77
  16                   0.60      7.72      7.72
  17                   0.60      7.71      7.71
  18                   0.60      7.77      7.77
  19                   0.60      7.74      7.74
  20                   0.60      7.71      7.71
  21                   0.60      7.71      7.71
  22                   0.60      7.72      7.72
  23                   0.60      7.71      7.71
  24                   0.60      7.71      7.71
  25                   0.60      7.70      7.70
  26                   0.60      7.71      7.71
  27                   0.60      7.71      7.71
  28                   0.60      7.70      7.70
  29                   0.60      7.70      7.70
  4                  -25.21      1.50      0.00  Reservoir
  1                   15.61      9.09      0.09  Tank
  2                    0.00      6.60      0.60  Tank
   
   
  Node Results at 20:00:00 hrs:
  ----------------------------------------------
                     Demand      Head  Pressure
  Node                  L/s         m         m
  ----------------------------------------------
  6                    0.00      1.34      1.34
  7                    0.00      1.34      1.34
  8                    0.00      1.34      1.34
  9                    0.00     18.96     18.96
  10                   0.00     18.96     18.96
  11                   0.00     18.96     18.96
  12                   0.00      9.69      9.69
  13                   0.00      9.50      9.50
  14                   0.50      8.95      8.95
  15                   0.50      8.81      8.81
  16                   0.50      8.78      8.78
  17                   0.50      8.77      8.77
  18                   0.50      8.81      8.81
  19                   0.50      8.79      8.79
  20                   0.50      8.77      8.77
  21                   0.50      8.77      8.77
  22                   0.50      8.78      8.78
  23                   0.50      8.77      8.77
  24                   0.50      8.77      8.77
  25                   0.50      8.76      8.76
  26                   0.50      8.77      8.77
  27                   0.50      8.77      8.77
  28                   0.50      8.76      8.76
  29                   0.50      8.76      8.76
  4                  -24.66      1.50      0.00  Reservoir
  1                   16.66      9.76      0.76  Tank
  2                    0.00      6.60      0.60  Tank
   
   
  Node Results at 21:00:00 hrs:
  ----------------------------------------------
                     Demand      Head  Pressure
  Node                  L/s         m         m
  ----------------------------------------------
  6                    0.00      1.34      1.34
  7                    0.00      1.34      1.34
  8                    0.00      1.34      1.34
  9                    0.00     18.94     18.94
  10                   0.00     18.94     18.94
  11                   0.00     18.94     18.94
  12                   0.00      9.65      9.65
  13                   0.00      9.49      9.49
  14                   0.45      9.04      9.04
  15                   0.45      8.92      8.92
  16                   0.45      8.90      8.90
  17                   0.45      8.89      8.89
  18                   0.45      8.92      8.92
  19                   0.45      8.91      8.91
  20                   0.45      8.89      8.89
  21                   0.45      8.89      8.89
  22                   0.45      8.90      8.90
  23                   0.45      8.89      8.89
  24                   0.45      8.89      8.89
  25                   0.45      8.89      8.89
  26                   0.45      8.89      8.89
  27                   0.45      8.89      8.89
  28                   0.45      8.89      8.89
  29                   0.45      8.89      8.89
  4                  -24.71      1.50      0.00  Reservoir
  1                   17.51      9.70      0.70  Tank
  2                    0.00      6.60      0.60  Tank
   
   
  Node Results at 22:00:00 hrs:
  ----------------------------------------------
                     Demand      Head  Pressure
  Node                  L/s         m         m
  ----------------------------------------------
  6                    0.00      1.33      1.33
  7                    0.00      1.33      1.33
  8                    0.00      1.33      1.33
  9                    0.00     18.64     18.64
  10                   0.00     18.64     18.64
  11                   0.00     18.64     18.64
  12                   0.00      8.99      8.99
  13                   0.00      8.86      8.86
  14                   0.40      8.49      8.49
  15                   0.40      8.40      8.40
  16                   0.40      8.38      8.38
  17                   0.40      8.38      8.38
  18                   0.40      8.40      8.40
  19                   0.40      8.39      8.39
  20                   0.40      8.38      8.38
  21                   0.40      8.38      8.38
  22                   0.40      8.38      8.38
  23                   0.40      8.38      8.38
  24                   0.40      8.38      8.38
  25                   0.40      8.37      8.37
  26                   0.40      8.38      8.38
  27                   0.40      8.38      8.38
  28                   0.40      8.37      8.37
  29                   0.40      8.37      8.37
  4                  -25.25      1.50      0.00  Reservoir
  1                   18.85      9.03      0.03  Tank
  2                    0.00      6.60      0.60  Tank
   
   
  Node Results at 23:00:00 hrs:
  ----------------------------------------------
                     Demand      Head  Pressure
  Node                  L/s         m         m
  ----------------------------------------------
  6                    0.00      1.34      1.34
  7                    0.00      1.34      1.34
  8                    0.00      1.34      1.34
  9                    0.00     18.83     18.83
  10                   0.00     18.83     18.83
  11                   0.00     18.83     18.83
  12                   0.00      9.38      9.38
  13                   0.00      9.30      9.30
  14                   0.30      9.09      9.09
  15                   0.30      9.03      9.03
  16                   0.30      9.02      9.02
  17                   0.30      9.02      9.02
  18                   0.30      9.03      9.03
  19                   0.30      9.03      9.03
  20                   0.30      9.02      9.02
  21                   0.30      9.02      9.02
  22                   0.30      9.02      9.02
  23                   0.30      9.02      9.02
  24                   0.30      9.02      9.02
  25                   0.30      9.02      9.02
  26                   0.30      9.02      9.02
  27                   0.30      9.02      9.02
  28                   0.30      9.02      9.02
  29                   0.30      9.02      9.02
  4                  -24.99      1.50      0.00  Reservoir
  1                   20.19      9.40      0.40  Tank
  2                    0.00      6.60      0.60  Tank
   
   
  Node Results at 24:00:00 hrs:
  ----------------------------------------------
                     Demand      Head  Pressure
  Node                  L/s         m         m
  ----------------------------------------------
  6                    0.00      1.34      1.34
  7                    0.00      1.34      1.34
  8                    0.00      1.34      1.34
  9                    0.00     18.89     18.89
  10                   0.00     18.89     18.89
  11                   0.00     18.89     18.89
  12                   0.00      9.53      9.53
  13                   0.00      9.46      9.46
  14                   0.30      9.24      9.24
  15                   0.30      9.19      9.19
  16                   0.30      9.18      9.18
  17                   0.30      9.17      9.17
  18                   0.30      9.19      9.19
  19                   0.30      9.18      9.18
  20                   0.30      9.17      9.17
  21                   0.30      9.17      9.17
  22                   0.30      9.18      9.18
  23                   0.30      9.17      9.17
  24                   0.30      9.17      9.17
  25                   0.30      9.17      9.17
  26                   0.30      9.17      9.17
  27                   0.30      9.17      9.17
  28                   0.30      9.17      9.17
  29                   0.30      9.17      9.17
  4                  -24.85      1.50      0.00  Reservoir
  1                   20.05      9.56      0.56  Tank
  2                    0.00      6.60      0.60  Tank
   
  Analysis ended Thu May 20 11:11:49 2021
